<?xml version="1.0" encoding="UTF-8"?>

<!-- generated on 2022-10-19 10:41:08 by Eclipse SUMO netedit Version 1.14.1
<configuration xmlns:xsi="http://www.w3.org/2001/XMLSchema-instance" xsi:noNamespaceSchemaLocation="http://sumo.dlr.de/xsd/netconvertConfiguration.xsd">

    <input>
        <sumo-net-file value="net.net.xml"/>
    </input>

    <output>
        <output-file value="net.net.xml"/>
    </output>

    <processing>
        <geometry.min-radius.fix.railways value="false"/>
        <geometry.max-grade.fix value="false"/>
        <offset.disable-normalization value="true"/>
        <lefthand value="false"/>
    </processing>

    <junctions>
        <no-turnarounds value="true"/>
        <junctions.corner-detail value="5"/>
        <junctions.limit-turn-speed value="5.5"/>
        <rectangular-lane-cut value="false"/>
    </junctions>

    <pedestrian>
        <walkingareas value="false"/>
    </pedestrian>

    <netedit>
        <additional-files value="/home/riccardo/Scrivania/UNIVERSITA/tirocinio/Sumo/additionals.xml"/>
    </netedit>

</configuration>
-->

<net version="1.9" junctionCornerDetail="5" limitTurnSpeed="5.50" xmlns:xsi="http://www.w3.org/2001/XMLSchema-instance" xsi:noNamespaceSchemaLocation="http://sumo.dlr.de/xsd/net_file.xsd">

    <location netOffset="0.00,0.00" convBoundary="-113.41,-7.08,39.17,95.38" origBoundary="-10000000000.00,-10000000000.00,10000000000.00,10000000000.00" projParameter="!"/>

    <edge id=":J0_0" function="internal">
        <lane id=":J0_0_0" index="0" speed="6.56" length="7.71" shape="-58.71,64.26 -59.80,62.52 -61.21,61.40 -62.94,60.93 -64.99,61.08"/>
    </edge>
    <edge id=":J0_1" function="internal">
        <lane id=":J0_1_0" index="0" speed="8.19" length="12.04" shape="-58.71,64.26 -59.64,61.17 -59.53,58.35 -58.37,55.78 -56.18,53.48"/>
    </edge>
    <edge id=":J0_2" function="internal">
        <lane id=":J0_2_0" index="0" speed="6.70" length="7.78" shape="-54.18,55.98 -55.59,57.46 -56.33,59.12 -56.40,60.95 -55.79,62.95"/>
    </edge>
    <edge id=":J0_3" function="internal">
        <lane id=":J0_3_0" index="0" speed="13.89" length="12.10" shape="-54.18,55.98 -56.83,57.95 -59.22,59.31 -61.79,60.28 -64.99,61.08"/>
    </edge>
    <edge id=":J0_4" function="internal">
        <lane id=":J0_4_0" index="0" speed="13.89" length="10.64" shape="-65.66,57.96 -62.67,57.25 -60.55,56.50 -58.62,55.35 -56.18,53.48"/>
    </edge>
    <edge id=":J0_5" function="internal">
        <lane id=":J0_5_0" index="0" speed="8.07" length="3.45" shape="-65.66,57.96 -62.44,57.71 -62.23,57.77"/>
    </edge>
    <edge id=":J0_6" function="internal">
        <lane id=":J0_6_0" index="0" speed="8.07" length="8.66" shape="-62.23,57.77 -59.72,58.46 -57.50,60.20 -55.79,62.95"/>
    </edge>
    <edge id=":J1_0" function="internal">
        <lane id=":J1_0_0" index="0" speed="6.75" length="9.44" shape="-10.80,28.34 -12.69,26.76 -14.72,26.17 -16.87,26.57 -19.16,27.96"/>
    </edge>
    <edge id=":J1_1" function="internal">
        <lane id=":J1_1_0" index="0" speed="13.89" length="14.50" shape="-10.80,28.34 -20.69,17.74"/>
    </edge>
    <edge id=":J1_2" function="internal">
        <lane id=":J1_2_0" index="0" speed="13.89" length="14.66" shape="-18.41,15.50 -8.40,26.21"/>
    </edge>
    <edge id=":J1_3" function="internal">
        <lane id=":J1_3_0" index="0" speed="7.83" length="14.59" shape="-18.41,15.50 -16.01,18.77 -15.34,21.94 -16.38,25.00 -19.16,27.96"/>
    </edge>
    <edge id=":J1_4" function="internal">
        <lane id=":J1_4_0" index="0" speed="6.30" length="9.04" shape="-21.16,25.46 -19.44,23.63 -18.79,21.73 -19.21,19.76 -20.69,17.74"/>
    </edge>
    <edge id=":J1_5" function="internal">
        <lane id=":J1_5_0" index="0" speed="8.21" length="14.41" shape="-21.16,25.46 -17.71,23.39 -14.43,22.82 -11.33,23.76 -8.40,26.21"/>
    </edge>
    <edge id=":J3_0" function="internal">
        <lane id=":J3_0_0" index="0" speed="6.23" length="11.76" shape="36.50,76.95 38.50,79.90 38.69,82.21 37.08,83.86 33.66,84.87"/>
    </edge>
    <edge id=":J3_1" function="internal">
        <lane id=":J3_1_0" index="0" speed="3.99" length="3.92" shape="33.16,81.71 34.30,81.38 34.83,80.82 34.77,80.06 34.10,79.07"/>
    </edge>
    <edge id=":J4_0" function="internal">
        <lane id=":J4_0_0" index="0" speed="6.14" length="6.33" shape="-40.28,96.58 -41.96,96.62 -43.38,96.17 -44.53,95.23 -45.41,93.81"/>
    </edge>
    <edge id=":J4_1" function="internal">
        <lane id=":J4_1_0" index="0" speed="3.94" length="2.11" shape="-42.49,92.49 -42.20,92.97 -41.82,93.28 -41.34,93.43 -40.79,93.42"/>
    </edge>

    <edge id="-E0" from="J1" to="J0" priority="-1">
        <lane id="-E0_0" index="0" speed="13.89" length="44.85" shape="-19.16,27.96 -54.18,55.98"/>
    </edge>
    <edge id="-E1" from="J3" to="J1" priority="-1">
        <lane id="-E1_0" index="0" speed="13.89" length="67.75" shape="34.10,79.07 -10.80,28.34"/>
    </edge>
    <edge id="-E2" from="J4" to="J3" priority="-1">
        <lane id="-E2_0" index="0" speed="13.89" length="74.86" shape="-40.79,93.42 33.16,81.71"/>
    </edge>
    <edge id="-E3" from="J0" to="J4" priority="-1">
        <lane id="-E3_0" index="0" speed="13.89" length="32.40" shape="-55.79,62.95 -42.49,92.49"/>
    </edge>
    <edge id="-E4" from="J5" to="J0" priority="-1">
        <lane id="-E4_0" index="0" speed="13.89" length="49.18" shape="-113.75,68.27 -65.66,57.96"/>
    </edge>
    <edge id="-E5" from="J2" to="J1" priority="-1">
        <lane id="-E5_0" index="0" speed="13.89" length="33.19" shape="-41.64,-8.20 -18.41,15.50"/>
    </edge>
    <edge id="E0" from="J0" to="J1" priority="-1">
        <lane id="E0_0" index="0" speed="13.89" length="44.85" shape="-56.18,53.48 -21.16,25.46"/>
    </edge>
    <edge id="E1" from="J1" to="J3" priority="-1">
        <lane id="E1_0" index="0" speed="13.89" length="67.75" shape="-8.40,26.21 36.50,76.95"/>
    </edge>
    <edge id="E2" from="J3" to="J4" priority="-1">
        <lane id="E2_0" index="0" speed="13.89" length="74.86" shape="33.66,84.87 -40.28,96.58"/>
    </edge>
    <edge id="E3" from="J4" to="J0" priority="-1">
        <lane id="E3_0" index="0" speed="13.89" length="32.40" shape="-45.41,93.81 -58.71,64.26"/>
    </edge>
    <edge id="E4" from="J0" to="J5" priority="-1">
        <lane id="E4_0" index="0" speed="13.89" length="49.18" shape="-64.99,61.08 -113.07,71.39"/>
    </edge>
    <edge id="E5" from="J1" to="J2" priority="-1">
        <lane id="E5_0" index="0" speed="13.89" length="33.19" shape="-20.69,17.74 -43.93,-5.96"/>
    </edge>

    <tlLogic id="J0" type="static" programID="0" offset="0">
        <phase duration="42" state="rrrrrr"/>
        <phase duration="3"  state="rryyyy"/>
        <phase duration="42" state="GGGGGG"/>
        <phase duration="3"  state="yyyrrr"/>
    </tlLogic>
    <tlLogic id="J1" type="static" programID="0" offset="0">
        <phase duration="42" state="rrrrrr"/>
        <phase duration="3"  state="yyyyrr"/>
        <phase duration="42" state="rrrrrr"/>
        <phase duration="3"  state="yrrryy"/>
    </tlLogic>

    <junction id="J0" type="traffic_light" x="-59.64" y="58.30" incLanes="E3_0 -E0_0 -E4_0" intLanes=":J0_0_0 :J0_1_0 :J0_2_0 :J0_3_0 :J0_4_0 :J0_6_0" shape="-60.17,64.92 -54.33,62.29 -54.81,60.38 -54.73,59.50 -54.43,58.69 -53.91,57.93 -53.18,57.23 -57.18,52.23 -58.82,53.53 -60.10,54.44 -61.23,55.07 -62.44,55.54 -63.95,55.94 -66.00,56.39 -64.66,62.65 -62.75,62.60 -61.96,62.88 -61.26,63.36 -60.66,64.04">
        <request index="0" response="001000" foes="001000" cont="0"/>
        <request index="1" response="111000" foes="111000" cont="0"/>
        <request index="2" response="000000" foes="100000" cont="0"/>
        <request index="3" response="000000" foes="100011" cont="0"/>
        <request index="4" response="000000" foes="000010" cont="0"/>
        <request index="5" response="001100" foes="001110" cont="1"/>
    </junction>
    <junction id="J1" type="traffic_light" x="-14.27" y="22.00" incLanes="-E1_0 -E5_0 E0_0" intLanes=":J1_0_0 :J1_1_0 :J1_2_0 :J1_3_0 :J1_4_0 :J1_5_0" shape="-12.00,29.40 -7.20,25.15 -17.26,14.38 -21.83,18.86 -20.62,20.72 -20.51,21.62 -20.73,22.51 -21.28,23.37 -22.16,24.21 -18.16,29.21 -15.91,27.98 -14.86,27.85 -13.86,28.04 -12.90,28.56">
        <request index="0" response="000000" foes="001000" cont="0"/>
        <request index="1" response="000000" foes="111000" cont="0"/>
        <request index="2" response="000000" foes="100000" cont="0"/>
        <request index="3" response="000011" foes="100011" cont="0"/>
        <request index="4" response="000010" foes="000010" cont="0"/>
        <request index="5" response="001110" foes="001110" cont="0"/>
    </junction>
    <junction id="J2" type="dead_end" x="-42.79" y="-7.08" incLanes="E5_0" intLanes="" shape="-42.79,-7.08 -45.07,-4.84 -42.79,-7.08"/>
    <junction id="J3" type="priority" x="39.17" y="82.38" incLanes="E1_0 -E2_0" intLanes=":J3_0_0 :J3_1_0" shape="37.70,75.89 32.91,80.13 33.91,86.45 37.21,85.65 39.45,84.47 40.62,82.90 40.72,80.95 39.74,78.61">
        <request index="0" response="00" foes="00" cont="0"/>
        <request index="1" response="00" foes="00" cont="0"/>
    </junction>
    <junction id="J4" type="priority" x="-42.95" y="95.38" incLanes="E2_0 -E3_0" intLanes=":J4_0_0 :J4_1_0" shape="-40.03,98.16 -41.04,91.84 -46.87,94.46 -45.22,96.86 -44.16,97.62 -42.94,98.09 -41.57,98.27">
        <request index="0" response="00" foes="00" cont="0"/>
        <request index="1" response="00" foes="00" cont="0"/>
    </junction>
    <junction id="J5" type="dead_end" x="-113.41" y="69.83" incLanes="E4_0" intLanes="" shape="-113.41,69.83 -112.74,72.96 -113.41,69.83"/>

    <junction id=":J0_6_0" type="internal" x="-62.23" y="57.77" incLanes=":J0_5_0 -E0_0" intLanes=":J0_1_0 :J0_2_0 :J0_3_0"/>

    <connection from="-E0" to="-E3" fromLane="0" toLane="0" via=":J0_2_0" tl="J0" linkIndex="2" dir="r" state="O"/>
    <connection from="-E0" to="E4" fromLane="0" toLane="0" via=":J0_3_0" tl="J0" linkIndex="3" dir="s" state="O"/>
    <connection from="-E1" to="-E0" fromLane="0" toLane="0" via=":J1_0_0" tl="J1" linkIndex="0" dir="r" state="O"/>
    <connection from="-E1" to="E5" fromLane="0" toLane="0" via=":J1_1_0" tl="J1" linkIndex="1" dir="s" state="O"/>
    <connection from="-E2" to="-E1" fromLane="0" toLane="0" via=":J3_1_0" dir="r" state="M"/>
    <connection from="-E3" to="-E2" fromLane="0" toLane="0" via=":J4_1_0" dir="r" state="M"/>
    <connection from="-E4" to="E0" fromLane="0" toLane="0" via=":J0_4_0" tl="J0" linkIndex="4" dir="s" state="O"/>
    <connection from="-E4" to="-E3" fromLane="0" toLane="0" via=":J0_5_0" tl="J0" linkIndex="5" dir="l" state="o"/>
    <connection from="-E5" to="E1" fromLane="0" toLane="0" via=":J1_2_0" tl="J1" linkIndex="2" dir="s" state="O"/>
    <connection from="-E5" to="-E0" fromLane="0" toLane="0" via=":J1_3_0" tl="J1" linkIndex="3" dir="l" state="o"/>
    <connection from="E0" to="E5" fromLane="0" toLane="0" via=":J1_4_0" tl="J1" linkIndex="4" dir="r" state="o"/>
    <connection from="E0" to="E1" fromLane="0" toLane="0" via=":J1_5_0" tl="J1" linkIndex="5" dir="l" state="o"/>
    <connection from="E1" to="E2" fromLane="0" toLane="0" via=":J3_0_0" dir="l" state="M"/>
    <connection from="E2" to="E3" fromLane="0" toLane="0" via=":J4_0_0" dir="l" state="M"/>
    <connection from="E3" to="E4" fromLane="0" toLane="0" via=":J0_0_0" tl="J0" linkIndex="0" dir="r" state="o"/>
    <connection from="E3" to="E0" fromLane="0" toLane="0" via=":J0_1_0" tl="J0" linkIndex="1" dir="l" state="o"/>

    <connection from=":J0_0" to="E4" fromLane="0" toLane="0" dir="r" state="M"/>
    <connection from=":J0_1" to="E0" fromLane="0" toLane="0" dir="l" state="M"/>
    <connection from=":J0_2" to="-E3" fromLane="0" toLane="0" dir="r" state="M"/>
    <connection from=":J0_3" to="E4" fromLane="0" toLane="0" dir="s" state="M"/>
    <connection from=":J0_4" to="E0" fromLane="0" toLane="0" dir="s" state="M"/>
    <connection from=":J0_5" to="-E3" fromLane="0" toLane="0" via=":J0_6_0" dir="l" state="m"/>
    <connection from=":J0_6" to="-E3" fromLane="0" toLane="0" dir="l" state="M"/>
    <connection from=":J1_0" to="-E0" fromLane="0" toLane="0" dir="r" state="M"/>
    <connection from=":J1_1" to="E5" fromLane="0" toLane="0" dir="s" state="M"/>
    <connection from=":J1_2" to="E1" fromLane="0" toLane="0" dir="s" state="M"/>
    <connection from=":J1_3" to="-E0" fromLane="0" toLane="0" dir="l" state="M"/>
    <connection from=":J1_4" to="E5" fromLane="0" toLane="0" dir="r" state="M"/>
    <connection from=":J1_5" to="E1" fromLane="0" toLane="0" dir="l" state="M"/>
    <connection from=":J3_0" to="E2" fromLane="0" toLane="0" dir="l" state="M"/>
    <connection from=":J3_1" to="-E1" fromLane="0" toLane="0" dir="r" state="M"/>
    <connection from=":J4_0" to="E3" fromLane="0" toLane="0" dir="l" state="M"/>
    <connection from=":J4_1" to="-E2" fromLane="0" toLane="0" dir="r" state="M"/>

</net>
