<?xml version="1.0" encoding="UTF-8"?>

<!-- generated on 2023-03-09 09:00:35 by Eclipse SUMO netedit Version 1.16.0
<configuration xmlns:xsi="http://www.w3.org/2001/XMLSchema-instance" xsi:noNamespaceSchemaLocation="http://sumo.dlr.de/xsd/netconvertConfiguration.xsd">

    <input>
        <sumo-net-file value="1k/MASA.net.xml"/>
    </input>

    <output>
        <output-file value="1k/MASA.net.xml"/>
    </output>

    <processing>
        <geometry.min-radius.fix.railways value="false"/>
        <geometry.max-grade.fix value="false"/>
        <offset.disable-normalization value="true"/>
        <lefthand value="0"/>
    </processing>

    <junctions>
        <no-turnarounds value="true"/>
        <junctions.corner-detail value="5"/>
        <junctions.limit-turn-speed value="5.50"/>
        <rectangular-lane-cut value="0"/>
    </junctions>

    <pedestrian>
        <walkingareas value="0"/>
    </pedestrian>

</configuration>
-->

<net version="1.16" junctionCornerDetail="5" limitTurnSpeed="5.50" xmlns:xsi="http://www.w3.org/2001/XMLSchema-instance" xsi:noNamespaceSchemaLocation="http://sumo.dlr.de/xsd/net_file.xsd">

    <location netOffset="-652597.85,-4946246.76" convBoundary="0.00,0.00,1872.85,1518.20" origBoundary="652597.85,4946246.76,654470.70,4947764.96" projParameter="!"/>

    <edge id=":1076629757_0" function="internal">
        <lane id=":1076629757_0_0" index="0" speed="8.18" length="4.99" shape="481.46,527.63 480.77,528.95 480.38,529.92 480.30,530.93 480.53,532.36"/>
    </edge>
    <edge id=":1076629757_1" function="internal">
        <lane id=":1076629757_1_0" index="0" speed="8.33" length="5.30" shape="477.33,527.57 478.40,528.94 479.28,529.82 479.98,530.77 480.53,532.36"/>
        <lane id=":1076629757_1_1" index="1" speed="8.33" length="5.30" shape="474.64,529.30 475.54,530.40 476.31,531.07 476.94,531.80 477.41,533.07"/>
    </edge>
    <edge id=":1076629758_0" function="internal">
        <lane id=":1076629758_0_0" index="0" speed="8.33" length="1.13" shape="482.31,540.19 482.42,540.68 482.46,541.02 482.45,541.36 482.39,541.86"/>
        <lane id=":1076629758_0_1" index="1" speed="8.33" length="1.13" shape="479.19,540.90 479.23,541.06 479.24,541.17 479.24,541.29 479.22,541.45"/>
    </edge>
    <edge id=":1076629761_0" function="internal">
        <lane id=":1076629761_0_0" index="0" speed="8.33" length="1.33" shape="481.51,548.70 481.43,549.29 481.33,549.68 481.16,550.06 480.86,550.57"/>
        <lane id=":1076629761_0_1" index="1" speed="8.33" length="1.33" shape="478.34,548.29 478.31,548.49 478.28,548.62 478.22,548.75 478.12,548.92"/>
    </edge>
    <edge id=":1076629764_0" function="internal">
        <lane id=":1076629764_0_0" index="0" speed="8.33" length="1.12" shape="460.86,566.64 460.38,566.76 460.04,566.82 459.70,566.83 459.20,566.79"/>
        <lane id=":1076629764_0_1" index="1" speed="8.33" length="1.12" shape="460.01,563.55 459.85,563.59 459.73,563.61 459.62,563.62 459.45,563.60"/>
    </edge>
    <edge id=":1076629766_0" function="internal">
        <lane id=":1076629766_0_0" index="0" speed="8.33" length="1.11" shape="452.29,566.24 451.80,566.20 451.46,566.14 451.14,566.03 450.69,565.83"/>
        <lane id=":1076629766_0_1" index="1" speed="8.33" length="1.11" shape="452.54,563.05 452.38,563.04 452.27,563.02 452.16,562.98 452.01,562.92"/>
    </edge>
    <edge id=":1076629767_0" function="internal">
        <lane id=":1076629767_0_0" index="0" speed="8.33" length="1.83" shape="441.82,561.79 443.13,562.14"/>
        <lane id=":1076629767_0_1" index="1" speed="8.33" length="1.83" shape="443.16,558.88 445.28,559.77"/>
    </edge>
    <edge id=":1076629769_0" function="internal">
        <lane id=":1076629769_0_0" index="0" speed="8.33" length="4.01" shape="434.71,551.28 435.01,554.74"/>
        <lane id=":1076629769_0_1" index="1" speed="8.33" length="4.01" shape="437.49,549.69 438.16,554.20"/>
    </edge>
    <edge id=":1076629770_0" function="internal">
        <lane id=":1076629770_0_0" index="0" speed="8.33" length="1.13" shape="432.98,542.89 432.90,542.40 432.87,542.05 432.90,541.71 432.99,541.21"/>
        <lane id=":1076629770_0_1" index="1" speed="8.33" length="1.13" shape="436.13,542.35 436.11,542.19 436.10,542.07 436.11,541.96 436.14,541.79"/>
    </edge>
    <edge id=":1076629771_0" function="internal">
        <lane id=":1076629771_0_0" index="0" speed="7.63" length="8.81" shape="434.51,532.92 434.93,530.36 435.01,528.56 434.71,526.78 434.00,524.27"/>
    </edge>
    <edge id=":1076629771_1" function="internal">
        <lane id=":1076629771_1_0" index="0" speed="8.33" length="7.46" shape="434.51,532.92 435.16,530.72 436.03,529.37 437.12,528.10 438.42,526.12"/>
        <lane id=":1076629771_1_1" index="1" speed="8.33" length="7.46" shape="437.66,533.50 438.25,531.58 439.07,530.44 440.08,529.35 441.24,527.64"/>
    </edge>
    <edge id=":1076629776_0" function="internal">
        <lane id=":1076629776_0_0" index="0" speed="8.33" length="1.12" shape="452.80,518.04 453.26,517.88 453.60,517.80 453.94,517.77 454.43,517.77"/>
        <lane id=":1076629776_0_1" index="1" speed="8.33" length="1.12" shape="453.86,521.06 454.01,521.01 454.13,520.98 454.24,520.97 454.40,520.97"/>
    </edge>
    <edge id=":1076629777_0" function="internal">
        <lane id=":1076629777_0_0" index="0" speed="8.33" length="1.12" shape="461.37,517.83 461.87,517.84 462.21,517.88 462.54,517.96 463.01,518.13"/>
        <lane id=":1076629777_0_1" index="1" speed="8.33" length="1.12" shape="461.34,521.03 461.51,521.03 461.62,521.05 461.73,521.07 461.89,521.13"/>
    </edge>
    <edge id=":1076629780_0" function="internal">
        <lane id=":1076629780_0_0" index="0" speed="8.33" length="1.26" shape="471.61,521.37 470.84,521.33"/>
        <lane id=":1076629780_0_1" index="1" speed="8.33" length="1.26" shape="470.48,524.36 468.83,523.82"/>
    </edge>
    <edge id=":1076629789_0" function="internal">
        <lane id=":1076629789_0_0" index="0" speed="11.08" length="1.08" shape="775.64,236.98 775.44,236.54 775.32,236.23 775.26,235.91 775.20,235.43"/>
        <lane id=":1076629789_0_1" index="1" speed="13.89" length="1.08" shape="778.53,235.62 778.47,235.47 778.43,235.37 778.41,235.26 778.39,235.10"/>
    </edge>
    <edge id=":1076629791_0" function="internal">
        <lane id=":1076629791_0_0" index="0" speed="13.89" length="0.73" shape="778.17,219.27 778.34,218.99 778.47,218.81 778.61,218.64 778.83,218.40"/>
        <lane id=":1076629791_0_1" index="1" speed="13.89" length="0.73" shape="780.93,220.90 780.99,220.80 781.03,220.74 781.08,220.69 781.15,220.61"/>
    </edge>
    <edge id=":1076629793_0" function="internal">
        <lane id=":1076629793_0_0" index="0" speed="7.21" length="5.67" shape="781.45,212.49 782.69,212.97 784.02,213.11 785.43,212.92 786.92,212.39"/>
    </edge>
    <edge id=":1076629793_1" function="internal">
        <lane id=":1076629793_1_0" index="0" speed="13.89" length="6.47" shape="781.15,215.83 782.80,214.70 783.93,213.93 785.12,213.25 786.92,212.39"/>
        <lane id=":1076629793_1_1" index="1" speed="13.89" length="6.47" shape="782.92,218.49 784.45,217.45 785.49,216.73 786.58,216.10 788.24,215.30"/>
    </edge>
    <edge id=":1076629794_0" function="internal">
        <lane id=":1076629794_0_0" index="0" speed="13.89" length="1.59" shape="798.58,211.53 797.44,211.00"/>
        <lane id=":1076629794_0_1" index="1" speed="13.89" length="1.59" shape="798.11,214.70 796.33,214.00"/>
    </edge>
    <edge id=":1076629795_0" function="internal">
        <lane id=":1076629795_0_0" index="0" speed="13.89" length="4.15" shape="813.51,222.86 810.86,220.31"/>
        <lane id=":1076629795_0_1" index="1" speed="13.89" length="4.15" shape="811.15,225.03 807.97,221.68"/>
    </edge>
    <edge id=":1076629797_0" function="internal">
        <lane id=":1076629797_0_0" index="0" speed="13.89" length="0.61" shape="813.79,230.10 813.97,230.70"/>
        <lane id=":1076629797_0_1" index="1" speed="13.89" length="0.61" shape="810.62,230.55 810.85,230.00"/>
    </edge>
    <edge id=":1076629799_0" function="internal">
        <lane id=":1076629799_0_0" index="0" speed="12.51" length="1.02" shape="806.31,245.98 805.99,246.30 805.75,246.50 805.49,246.67 805.09,246.87"/>
        <lane id=":1076629799_0_1" index="1" speed="13.89" length="1.02" shape="804.05,243.72 803.94,243.83 803.86,243.89 803.78,243.95 803.64,244.02"/>
    </edge>
    <edge id=":1076629800_0" function="internal">
        <lane id=":1076629800_0_0" index="0" speed="13.89" length="0.67" shape="790.56,249.86 790.26,249.83 790.06,249.80 789.86,249.74 789.58,249.65"/>
        <lane id=":1076629800_0_1" index="1" speed="13.89" length="0.67" shape="790.90,246.68 790.80,246.67 790.73,246.66 790.67,246.64 790.57,246.61"/>
    </edge>
    <edge id=":122006284_0" function="internal">
        <lane id=":122006284_0_0" index="0" speed="19.44" length="0.28" shape="1507.08,888.11 1507.33,887.93"/>
        <lane id=":122006284_0_1" index="1" speed="19.44" length="0.28" shape="1508.96,890.70 1509.17,890.55"/>
    </edge>
    <edge id=":1359262854_0" function="internal">
        <lane id=":1359262854_0_0" index="0" speed="13.89" length="0.49" shape="786.43,188.84 786.55,188.75 786.63,188.69 786.70,188.62 786.79,188.51"/>
    </edge>
    <edge id=":1359262856_0" function="internal">
        <lane id=":1359262856_0_0" index="0" speed="13.89" length="0.39" shape="767.55,204.76 767.77,205.08"/>
    </edge>
    <edge id=":1359262856_1" function="internal">
        <lane id=":1359262856_1_0" index="0" speed="13.89" length="0.27" shape="770.34,203.18 770.19,202.95"/>
    </edge>
    <edge id=":1419841705_0" function="internal">
        <lane id=":1419841705_0_0" index="0" speed="13.89" length="0.16" shape="506.96,506.37 506.90,506.42"/>
        <lane id=":1419841705_0_1" index="1" speed="13.89" length="0.16" shape="504.94,503.88 504.76,504.04"/>
    </edge>
    <edge id=":1433716826_0" function="internal">
        <lane id=":1433716826_0_0" index="0" speed="4.17" length="0.29" shape="1694.81,267.37 1694.54,267.25"/>
    </edge>
    <edge id=":1433716826_1" function="internal">
        <lane id=":1433716826_1_0" index="0" speed="4.17" length="0.30" shape="1695.88,264.34 1696.16,264.47"/>
    </edge>
    <edge id=":1433716827_0" function="internal">
        <lane id=":1433716827_0_0" index="0" speed="3.65" length="4.67" shape="1695.68,289.26 1697.08,289.61 1697.73,290.23 1697.62,291.12 1696.76,292.28"/>
    </edge>
    <edge id=":1433716828_0" function="internal">
        <lane id=":1433716828_0_0" index="0" speed="3.91" length="2.43" shape="1643.93,294.04 1643.59,293.47 1643.14,293.14 1642.60,293.04 1641.95,293.16"/>
    </edge>
    <edge id=":1433716828_1" function="internal">
        <lane id=":1433716828_1_0" index="0" speed="4.17" length="7.30" shape="1640.91,290.13 1642.85,289.76 1644.49,290.07 1645.83,291.07 1646.87,292.76"/>
    </edge>
    <edge id=":1433716829_0" function="internal">
        <lane id=":1433716829_0_0" index="0" speed="4.17" length="7.36" shape="1654.61,307.33 1652.65,307.73 1651.00,307.44 1649.65,306.43 1648.60,304.73"/>
    </edge>
    <edge id=":1433716829_1" function="internal">
        <lane id=":1433716829_1_0" index="0" speed="3.91" length="2.45" shape="1651.53,303.45 1651.88,304.02 1652.33,304.35 1652.88,304.45 1653.54,304.32"/>
    </edge>
    <edge id=":1433716831_0" function="internal">
        <lane id=":1433716831_0_0" index="0" speed="6.94" length="14.31" shape="1600.03,313.56 1595.01,300.15"/>
    </edge>
    <edge id=":1433716831_1" function="internal">
        <lane id=":1433716831_1_0" index="0" speed="5.55" length="3.92" shape="1600.03,313.56 1599.22,309.72"/>
    </edge>
    <edge id=":1433716831_2" function="internal">
        <lane id=":1433716831_2_0" index="0" speed="3.65" length="1.44" shape="1600.03,313.56 1600.37,312.16"/>
    </edge>
    <edge id=":1433716831_9" function="internal">
        <lane id=":1433716831_9_0" index="0" speed="5.55" length="10.34" shape="1599.22,309.72 1599.85,306.57 1601.91,304.10 1605.40,302.32"/>
    </edge>
    <edge id=":1433716831_10" function="internal">
        <lane id=":1433716831_10_0" index="0" speed="3.65" length="3.23" shape="1600.37,312.16 1600.98,311.51 1601.87,311.61 1603.03,312.47"/>
    </edge>
    <edge id=":1433716831_3" function="internal">
        <lane id=":1433716831_3_0" index="0" speed="5.55" length="9.03" shape="1606.43,305.35 1604.23,306.48 1602.92,308.04 1602.53,310.04 1603.03,312.47"/>
    </edge>
    <edge id=":1433716831_4" function="internal">
        <lane id=":1433716831_4_0" index="0" speed="5.55" length="14.20" shape="1606.43,305.35 1602.60,306.09 1599.42,305.48 1596.89,303.50 1595.01,300.15"/>
    </edge>
    <edge id=":1433716831_5" function="internal">
        <lane id=":1433716831_5_0" index="0" speed="3.65" length="4.67" shape="1606.43,305.35 1605.04,304.98 1604.40,304.35 1604.52,303.47 1605.40,302.32"/>
    </edge>
    <edge id=":1433716831_6" function="internal">
        <lane id=":1433716831_6_0" index="0" speed="5.55" length="9.17" shape="1598.00,299.00 1599.21,301.15 1600.84,302.42 1602.91,302.81 1605.40,302.32"/>
    </edge>
    <edge id=":1433716831_7" function="internal">
        <lane id=":1433716831_7_0" index="0" speed="6.94" length="14.37" shape="1598.00,299.00 1603.03,312.47"/>
    </edge>
    <edge id=":1433716831_8" function="internal">
        <lane id=":1433716831_8_0" index="0" speed="3.65" length="1.44" shape="1598.00,299.00 1597.68,300.41"/>
    </edge>
    <edge id=":1433716831_11" function="internal">
        <lane id=":1433716831_11_0" index="0" speed="3.65" length="3.23" shape="1597.68,300.41 1597.08,301.07 1596.19,300.98 1595.01,300.15"/>
    </edge>
    <edge id=":1433716849_0" function="internal">
        <lane id=":1433716849_0_0" index="0" speed="4.17" length="0.28" shape="1306.63,441.22 1306.39,441.07"/>
    </edge>
    <edge id=":1433716849_1" function="internal">
        <lane id=":1433716849_1_0" index="0" speed="4.17" length="0.14" shape="1308.15,438.40 1308.27,438.47"/>
    </edge>
    <edge id=":1476164942_0" function="internal">
        <lane id=":1476164942_0_0" index="0" speed="4.17" length="0.32" shape="1274.90,937.60 1274.94,937.69 1274.96,937.76 1274.97,937.82 1274.99,937.91"/>
    </edge>
    <edge id=":1476164945_0" function="internal">
        <lane id=":1476164945_0_0" index="0" speed="4.17" length="0.43" shape="1275.30,939.55 1275.32,939.68 1275.33,939.77 1275.33,939.85 1275.32,939.98"/>
    </edge>
    <edge id=":1476164946_0" function="internal">
        <lane id=":1476164946_0_0" index="0" speed="4.17" length="0.50" shape="1275.01,943.35 1274.99,943.50 1274.97,943.60 1274.94,943.69 1274.88,943.83"/>
    </edge>
    <edge id=":1476164947_0" function="internal">
        <lane id=":1476164947_0_0" index="0" speed="4.17" length="0.10" shape="1259.35,944.60 1259.31,944.56"/>
    </edge>
    <edge id=":1476164948_0" function="internal">
        <lane id=":1476164948_0_0" index="0" speed="4.17" length="0.43" shape="1274.28,945.18 1274.23,945.30 1274.19,945.37 1274.14,945.44 1274.06,945.54"/>
    </edge>
    <edge id=":1476164949_0" function="internal">
        <lane id=":1476164949_0_0" index="0" speed="4.17" length="0.24" shape="1261.22,946.22 1261.16,946.19 1261.12,946.16 1261.09,946.13 1261.03,946.08"/>
    </edge>
    <edge id=":1476164953_0" function="internal">
        <lane id=":1476164953_0_0" index="0" speed="4.17" length="0.40" shape="1263.42,947.58 1263.30,947.54 1263.23,947.51 1263.15,947.47 1263.05,947.40"/>
    </edge>
    <edge id=":1476164955_0" function="internal">
        <lane id=":1476164955_0_0" index="0" speed="4.17" length="0.72" shape="1268.91,948.78 1268.71,948.83 1268.56,948.85 1268.41,948.84 1268.20,948.80"/>
    </edge>
    <edge id=":1476164957_0" function="internal">
        <lane id=":1476164957_0_0" index="0" speed="4.17" length="0.40" shape="1485.05,957.09 1484.93,957.07 1484.85,957.07 1484.77,957.07 1484.65,957.08"/>
    </edge>
    <edge id=":1476164959_0" function="internal">
        <lane id=":1476164959_0_0" index="0" speed="4.17" length="0.24" shape="1461.06,961.26 1460.99,961.28 1460.94,961.29 1460.90,961.31 1460.83,961.34"/>
    </edge>
    <edge id=":1476164961_0" function="internal">
        <lane id=":1476164961_0_0" index="0" speed="4.17" length="0.27" shape="1508.05,964.24 1507.99,964.19 1507.94,964.16 1507.89,964.14 1507.82,964.10"/>
    </edge>
    <edge id=":1476164963_0" function="internal">
        <lane id=":1476164963_0_0" index="0" speed="4.17" length="0.56" shape="1528.41,980.76 1528.33,980.61 1528.27,980.51 1528.20,980.42 1528.08,980.30"/>
    </edge>
    <edge id=":1476164965_0" function="internal">
        <lane id=":1476164965_0_0" index="0" speed="4.17" length="0.62" shape="1334.33,1055.06 1334.63,1054.51"/>
    </edge>
    <edge id=":1476164970_0" function="internal">
        <lane id=":1476164970_0_0" index="0" speed="4.17" length="0.28" shape="1334.41,1072.77 1334.43,1072.85 1334.44,1072.90 1334.46,1072.96 1334.49,1073.03"/>
    </edge>
    <edge id=":1786899256_0" function="internal">
        <lane id=":1786899256_0_0" index="0" speed="6.01" length="6.57" shape="440.46,518.71 441.97,520.03 443.44,520.72 444.87,520.77 446.26,520.19"/>
    </edge>
    <edge id=":1786899256_1" function="internal">
        <lane id=":1786899256_1_0" index="0" speed="8.33" length="8.13" shape="439.70,525.50 441.47,523.72 442.76,522.58 444.16,521.57 446.26,520.19"/>
        <lane id=":1786899256_1_1" index="1" speed="8.33" length="8.13" shape="441.99,527.74 443.62,526.10 444.80,525.06 446.09,524.13 448.02,522.86"/>
    </edge>
    <edge id=":1786899257_0" function="internal">
        <lane id=":1786899257_0_0" index="0" speed="8.33" length="0.55" shape="473.79,560.96 473.61,561.13 473.48,561.23 473.34,561.33 473.14,561.46"/>
        <lane id=":1786899257_0_1" index="1" speed="8.33" length="0.55" shape="471.63,558.60 471.57,558.66 471.53,558.69 471.48,558.72 471.41,558.77"/>
    </edge>
    <edge id=":1786899260_0" function="internal">
        <lane id=":1786899260_0_0" index="0" speed="6.94" length="0.31" shape="769.94,902.52 769.72,902.30"/>
    </edge>
    <edge id=":1786899260_1" function="internal">
        <lane id=":1786899260_1_0" index="0" speed="6.94" length="0.22" shape="772.00,900.05 772.15,900.21"/>
    </edge>
    <edge id=":2012904697_0" function="internal">
        <lane id=":2012904697_0_0" index="0" speed="2.78" length="0.42" shape="270.16,292.47 270.28,292.47 270.37,292.47 270.45,292.46 270.57,292.44"/>
    </edge>
    <edge id=":2012904699_0" function="internal">
        <lane id=":2012904699_0_0" index="0" speed="2.78" length="0.17" shape="326.15,309.69 326.10,309.68 326.07,309.68 326.04,309.67 325.99,309.67"/>
    </edge>
    <edge id=":2012904708_0" function="internal">
        <lane id=":2012904708_0_0" index="0" speed="2.78" length="0.97" shape="364.33,314.75 364.07,314.87 363.88,314.93 363.68,314.94 363.40,314.90"/>
    </edge>
    <edge id=":2021886662_0" function="internal">
        <lane id=":2021886662_0_0" index="0" speed="13.89" length="0.17" shape="792.80,141.28 792.80,141.23 792.80,141.19 792.79,141.16 792.78,141.11"/>
    </edge>
    <edge id=":2021886662_1" function="internal">
        <lane id=":2021886662_1_0" index="0" speed="13.89" length="0.51" shape="795.94,140.58 795.96,140.72 795.98,140.83 795.99,140.93 796.00,141.08"/>
    </edge>
    <edge id=":2023217212_0" function="internal">
        <lane id=":2023217212_0_0" index="0" speed="3.65" length="4.67" shape="948.84,0.58 949.15,-0.83 949.75,-1.49 950.64,-1.41 951.82,-0.58"/>
    </edge>
    <edge id=":2023217234_0" function="internal">
        <lane id=":2023217234_0_0" index="0" speed="2.78" length="15.58" shape="801.16,104.27 800.60,99.23 801.67,96.73 804.38,96.80 808.74,99.41"/>
    </edge>
    <edge id=":2023217234_1" function="internal">
        <lane id=":2023217234_1_0" index="0" speed="2.78" length="5.19" shape="806.81,101.97 805.36,101.10 804.46,101.08 804.10,101.91 804.29,103.59"/>
    </edge>
    <edge id=":2023217237_0" function="internal">
        <lane id=":2023217237_0_0" index="0" speed="2.78" length="0.83" shape="831.98,121.17 831.88,120.95 831.79,120.80 831.67,120.68 831.48,120.53"/>
    </edge>
    <edge id=":2023217237_1" function="internal">
        <lane id=":2023217237_1_0" index="0" speed="2.78" length="2.49" shape="833.40,117.98 833.98,118.43 834.34,118.79 834.61,119.22 834.91,119.89"/>
    </edge>
    <edge id=":2023217238_0" function="internal">
        <lane id=":2023217238_0_0" index="0" speed="2.78" length="0.30" shape="805.18,122.65 805.11,122.36"/>
    </edge>
    <edge id=":2023217238_1" function="internal">
        <lane id=":2023217238_1_0" index="0" speed="2.78" length="0.30" shape="808.24,121.67 808.30,121.96"/>
    </edge>
    <edge id=":2023217239_0" function="internal">
        <lane id=":2023217239_0_0" index="0" speed="13.89" length="0.13" shape="665.21,124.82 665.10,124.89"/>
    </edge>
    <edge id=":2023217239_1" function="internal">
        <lane id=":2023217239_1_0" index="0" speed="13.89" length="0.39" shape="663.27,122.27 663.59,122.06"/>
    </edge>
    <edge id=":2023217241_0" function="internal">
        <lane id=":2023217241_0_0" index="0" speed="2.78" length="3.23" shape="811.51,146.73 810.79,146.10 810.37,145.59 810.11,144.98 809.88,144.06"/>
    </edge>
    <edge id=":2023217241_1" function="internal">
        <lane id=":2023217241_1_0" index="0" speed="2.78" length="1.08" shape="813.01,143.37 813.08,143.68 813.17,143.88 813.31,144.05 813.55,144.26"/>
    </edge>
    <edge id=":2023217242_0" function="internal">
        <lane id=":2023217242_0_0" index="0" speed="2.78" length="0.10" shape="844.12,148.95 844.12,148.95"/>
    </edge>
    <edge id=":2023217242_1" function="internal">
        <lane id=":2023217242_1_0" index="0" speed="2.78" length="0.10" shape="847.06,147.67 847.06,147.67"/>
    </edge>
    <edge id=":2023217243_0" function="internal">
        <lane id=":2023217243_0_0" index="0" speed="2.78" length="1.27" shape="843.40,172.88 843.05,172.72 842.83,172.60 842.61,172.45 842.32,172.21"/>
    </edge>
    <edge id=":2023217243_1" function="internal">
        <lane id=":2023217243_1_0" index="0" speed="2.78" length="0.42" shape="844.36,169.75 844.46,169.83 844.53,169.88 844.61,169.92 844.72,169.97"/>
    </edge>
    <edge id=":2023217244_0" function="internal">
        <lane id=":2023217244_0_0" index="0" speed="2.78" length="17.58" shape="862.69,181.65 846.68,174.38"/>
    </edge>
    <edge id=":2023217244_1" function="internal">
        <lane id=":2023217244_1_0" index="0" speed="2.78" length="18.02" shape="862.69,181.65 859.41,179.19 856.48,175.44 854.02,171.23 852.17,167.36"/>
    </edge>
    <edge id=":2023217244_2" function="internal">
        <lane id=":2023217244_2_0" index="0" speed="2.78" length="4.67" shape="862.69,181.65 861.93,180.42 861.89,179.53 862.59,178.96 864.01,178.73"/>
    </edge>
    <edge id=":2023217244_3" function="internal">
        <lane id=":2023217244_3_0" index="0" speed="2.78" length="15.79" shape="855.11,166.07 856.70,169.69 858.60,173.35 860.98,176.53 864.01,178.73"/>
    </edge>
    <edge id=":2023217244_4" function="internal">
        <lane id=":2023217244_4_0" index="0" speed="2.78" length="20.06" shape="855.11,166.07 857.06,172.27 856.31,175.72 852.85,176.42 846.68,174.38"/>
    </edge>
    <edge id=":2023217244_5" function="internal">
        <lane id=":2023217244_5_0" index="0" speed="2.78" length="4.67" shape="855.11,166.07 854.85,167.49 854.28,168.18 853.39,168.14 852.17,167.36"/>
    </edge>
    <edge id=":2023217244_6" function="internal">
        <lane id=":2023217244_6_0" index="0" speed="2.78" length="9.92" shape="848.01,171.46 851.06,172.48 852.77,172.13 853.14,170.42 852.17,167.36"/>
    </edge>
    <edge id=":2023217244_7" function="internal">
        <lane id=":2023217244_7_0" index="0" speed="2.78" length="17.58" shape="848.01,171.46 864.01,178.73"/>
    </edge>
    <edge id=":2023217244_8" function="internal">
        <lane id=":2023217244_8_0" index="0" speed="2.78" length="4.67" shape="848.01,171.46 848.77,172.69 848.80,173.58 848.11,174.15 846.68,174.38"/>
    </edge>
    <edge id=":2023217245_0" function="internal">
        <lane id=":2023217245_0_0" index="0" speed="2.78" length="5.87" shape="873.76,185.72 872.06,185.31 870.89,185.08 869.74,184.77 868.13,184.11"/>
    </edge>
    <edge id=":2023217245_1" function="internal">
        <lane id=":2023217245_1_0" index="0" speed="2.78" length="0.10" shape="869.45,181.20 869.39,181.20"/>
    </edge>
    <edge id=":2023217246_0" function="internal">
        <lane id=":2023217246_0_0" index="0" speed="8.34" length="8.77" shape="880.43,191.28 879.27,189.33 877.80,187.76 876.03,186.58 873.95,185.77"/>
    </edge>
    <edge id=":2023217246_1" function="internal">
        <lane id=":2023217246_1_0" index="0" speed="13.89" length="16.43" shape="880.43,191.28 873.41,176.42"/>
    </edge>
    <edge id=":2023217246_2" function="internal">
        <lane id=":2023217246_2_0" index="0" speed="5.46" length="9.34" shape="869.69,181.28 872.51,181.69 874.08,181.02 874.38,179.26 873.41,176.42"/>
    </edge>
    <edge id=":2023217246_3" function="internal">
        <lane id=":2023217246_3_0" index="0" speed="2.78" length="9.04" shape="869.69,181.28 872.44,180.81 874.07,181.40 874.57,183.05 873.95,185.77"/>
    </edge>
    <edge id=":2023217247_0" function="internal">
        <lane id=":2023217247_0_0" index="0" speed="13.89" length="8.84" shape="1016.32,224.12 1007.55,225.24"/>
    </edge>
    <edge id=":2023217247_1" function="internal">
        <lane id=":2023217247_1_0" index="0" speed="3.65" length="1.44" shape="1016.32,224.12 1015.02,223.49"/>
    </edge>
    <edge id=":2023217247_6" function="internal">
        <lane id=":2023217247_6_0" index="0" speed="3.65" length="3.23" shape="1015.02,223.49 1014.52,222.75 1014.81,221.90 1015.88,220.95"/>
    </edge>
    <edge id=":2023217247_2" function="internal">
        <lane id=":2023217247_2_0" index="0" speed="12.17" length="8.78" shape="1007.82,218.19 1010.09,219.50 1011.70,220.50 1013.38,221.03 1015.88,220.95"/>
    </edge>
    <edge id=":2023217247_3" function="internal">
        <lane id=":2023217247_3_0" index="0" speed="6.15" length="13.94" shape="1007.82,218.19 1012.04,220.74 1013.40,222.76 1011.90,224.26 1007.55,225.24"/>
    </edge>
    <edge id=":2023217247_4" function="internal">
        <lane id=":2023217247_4_0" index="0" speed="13.89" length="8.80" shape="1007.16,222.06 1015.88,220.95"/>
    </edge>
    <edge id=":2023217247_5" function="internal">
        <lane id=":2023217247_5_0" index="0" speed="3.65" length="1.44" shape="1007.16,222.06 1008.45,222.71"/>
    </edge>
    <edge id=":2023217247_7" function="internal">
        <lane id=":2023217247_7_0" index="0" speed="3.65" length="3.23" shape="1008.45,222.71 1008.94,223.45 1008.65,224.30 1007.55,225.24"/>
    </edge>
    <edge id=":2032810861_0" function="internal">
        <lane id=":2032810861_0_0" index="0" speed="4.17" length="0.28" shape="957.04,1073.10 956.97,1073.15 956.92,1073.18 956.88,1073.22 956.82,1073.28"/>
    </edge>
    <edge id=":2032810861_1" function="internal">
        <lane id=":2032810861_1_0" index="0" speed="4.17" length="0.84" shape="954.56,1071.02 954.74,1070.84 954.86,1070.73 955.00,1070.62 955.20,1070.48"/>
    </edge>
    <edge id=":2035506552_0" function="internal">
        <lane id=":2035506552_0_0" index="0" speed="19.44" length="0.29" shape="1582.71,839.88 1582.82,839.81 1582.89,839.77 1582.97,839.73 1583.09,839.67"/>
        <lane id=":2035506552_0_1" index="1" speed="19.44" length="0.29" shape="1584.35,842.63 1584.39,842.60 1584.41,842.59 1584.44,842.58 1584.48,842.56"/>
    </edge>
    <edge id=":2035506554_0" function="internal">
        <lane id=":2035506554_0_0" index="0" speed="19.44" length="0.24" shape="1593.06,857.32 1592.96,857.38"/>
        <lane id=":2035506554_0_1" index="1" speed="19.44" length="0.24" shape="1591.66,854.44 1591.34,854.61"/>
    </edge>
    <edge id=":2035506557_0" function="internal">
        <lane id=":2035506557_0_0" index="0" speed="19.44" length="0.23" shape="1536.40,867.58 1536.69,867.39"/>
        <lane id=":2035506557_0_1" index="1" speed="19.44" length="0.23" shape="1538.23,870.20 1538.33,870.14"/>
    </edge>
    <edge id=":2035506558_0" function="internal">
        <lane id=":2035506558_0_0" index="0" speed="19.44" length="0.22" shape="1546.60,884.49 1546.51,884.55"/>
        <lane id=":2035506558_0_1" index="1" speed="19.44" length="0.22" shape="1544.99,881.73 1544.71,881.91"/>
    </edge>
    <edge id=":2035506563_0" function="internal">
        <lane id=":2035506563_0_0" index="0" speed="4.17" length="7.51" shape="1404.07,1005.78 1402.43,1003.92 1400.85,1002.92 1399.33,1002.76 1397.86,1003.46"/>
    </edge>
    <edge id=":2035506563_1" function="internal">
        <lane id=":2035506563_1_0" index="0" speed="3.65" length="4.67" shape="1404.07,1005.78 1404.01,1004.34 1404.42,1003.54 1405.30,1003.39 1406.66,1003.89"/>
    </edge>
    <edge id=":2035506563_2" function="internal">
        <lane id=":2035506563_2_0" index="0" speed="4.17" length="9.17" shape="1407.67,995.86 1405.96,997.64 1405.22,999.57 1405.45,1001.65 1406.66,1003.89"/>
    </edge>
    <edge id=":2035506563_3" function="internal">
        <lane id=":2035506563_3_0" index="0" speed="4.17" length="12.41" shape="1407.67,995.86 1397.86,1003.46"/>
    </edge>
    <edge id=":2035506564_0" function="internal">
        <lane id=":2035506564_0_0" index="0" speed="13.89" length="2.09" shape="1381.14,1005.96 1383.17,1005.47"/>
    </edge>
    <edge id=":2035506585_0" function="internal">
        <lane id=":2035506585_0_0" index="0" speed="3.65" length="4.67" shape="1467.97,1087.68 1468.03,1089.12 1467.62,1089.91 1466.74,1090.06 1465.39,1089.56"/>
    </edge>
    <edge id=":2035506603_0" function="internal">