<routes xmlns:xsi="http://www.w3.org/2001/XMLSchema-instance" xsi:noNamespaceSchemaLocation="http://sumo.dlr.de/xsd/routes_file.xsd">
  <vType id="car" vClass="passenger" />
  <vType id="bicycle" vClass="bicycle" />
  <trip id="1118_0" depart="21448.00" from="836" to="505" type="car" />
    <trip id="1369_0" depart="21730.00" from="593" to="1048" type="car" />
    <trip id="826_0" depart="21832.00" from="666" to="336" type="car" />
    <trip id="1424_0" depart="22036.00" from="1090" to="732" type="car" />
    <trip id="943_0" depart="22152.00" from="808" to="450" type="car" />
    <trip id="152_0" depart="22370.00" from="618" to="664" type="car" />
    <trip id="1480_0" depart="22661.00" from="929" to="455" type="car" />
    <trip id="387_0" depart="22903.00" from="727" to="1019" type="car" />
    <trip id="1944_0" depart="22911.00" from="1097" to="1054" type="car" />
    <trip id="1855_0" depart="22949.00" from="818" to="161" type="car" />
    <trip id="2334_0" depart="22957.00" from="761" to="619" type="car" />
    <trip id="2380_0" depart="23035.00" from="445" to="1124" type="car" />
    <trip id="1251_0" depart="23140.00" from="1080" to="857" type="car" />
    <trip id="1691_0" depart="23212.00" from="783" to="1197" type="car" />
    <trip id="1376_0" depart="23343.00" from="693" to="786" type="car" />
    <trip id="1574_0" depart="23519.00" from="381" to="41" type="car" />
    <trip id="923_0" depart="23558.00" from="506" to="623" type="car" />
    <trip id="254_0" depart="23584.00" from="639" to="568" type="car" />
    <trip id="1363_0" depart="23864.00" from="435" to="1052" type="car" />
    <trip id="591_0" depart="23994.00" from="984" to="197" type="car" />
    <trip id="1633_0" depart="24046.00" from="164" to="861" type="car" />
    <trip id="459_0" depart="24065.00" from="578" to="259" type="car" />
    <trip id="2292_0" depart="24095.00" from="915" to="96" type="car" />
    <trip id="1896_0" depart="24103.00" from="1156" to="685" type="car" />
    <trip id="1310_0" depart="24105.00" from="480" to="171" type="car" />
    <trip id="386_0" depart="24123.00" from="473" to="1021" type="car" />
    <trip id="515_0" depart="24131.00" from="1217" to="734" type="car" />
    <trip id="1169_0" depart="24132.00" from="760" to="651" type="car" />
    <trip id="313_0" depart="24160.00" from="1055" to="973" type="car" />
    <trip id="1819_0" depart="24297.00" from="386" to="1015" type="car" />
    <trip id="464_0" depart="24307.00" from="854" to="713" type="car" />
    <trip id="638_0" depart="24362.00" from="807" to="1209" type="car" />
    <trip id="552_0" depart="24406.00" from="391" to="400" type="car" />
    <trip id="192_0" depart="24419.00" from="943" to="496" type="car" />
    <trip id="608_0" depart="24431.00" from="272" to="866" type="car" />
    <trip id="2214_0" depart="24643.00" from="764" to="1187" type="car" />
    <trip id="1898_0" depart="24665.00" from="1109" to="1094" type="car" />
    <trip id="537_0" depart="24809.00" from="919" to="1102" type="car" />
    <trip id="1043_0" depart="24811.00" from="141" to="760" type="car" />
    <trip id="1912_0" depart="24818.00" from="1073" to="1053" type="car" />
    <trip id="1996_0" depart="24843.00" from="451" to="1128" type="car" />
    <trip id="81_0" depart="24896.00" from="781" to="280" type="car" />
    <trip id="676_0" depart="24897.00" from="669" to="370" type="car" />
    <trip id="1822_0" depart="24915.00" from="595" to="988" type="car" />
    <trip id="1098_0" depart="24922.00" from="925" to="906" type="car" />
    <trip id="1764_0" depart="25011.00" from="991" to="217" type="car" />
    <trip id="1950_0" depart="25030.00" from="385" to="1149" type="car" />
    <trip id="693_0" depart="25056.00" from="349" to="588" type="car" />
    <trip id="2064_0" depart="25061.00" from="354" to="3" type="car" />
    <trip id="1823_0" depart="25068.00" from="443" to="32" type="car" />
    <trip id="1013_0" depart="25075.00" from="254" to="1139" type="car" />
    <trip id="947_0" depart="25182.00" from="693" to="481" type="car" />
    <trip id="1265_0" depart="25190.00" from="895" to="3" type="car" />
    <trip id="2074_0" depart="25194.00" from="986" to="61" type="car" />
    <trip id="111_0" depart="25229.00" from="60" to="703" type="car" />
    <trip id="830_0" depart="25257.00" from="687" to="561" type="car" />
    <trip id="1352_0" depart="25265.00" from="983" to="705" type="car" />
    <trip id="2264_0" depart="25267.00" from="693" to="731" type="car" />
    <trip id="201_0" depart="25287.00" from="259" to="382" type="car" />
    <trip id="1860_0" depart="25336.00" from="618" to="1117" type="car" />
    <trip id="1967_0" depart="25368.00" from="450" to="260" type="car" />
    <trip id="1096_0" depart="25392.00" from="1183" to="1027" type="car" />
    <trip id="769_0" depart="25404.00" from="232" to="862" type="car" />
    <trip id="2338_0" depart="25405.00" from="46" to="363" type="car" />
    <trip id="1273_0" depart="25530.00" from="1168" to="855" type="car" />
    <trip id="697_0" depart="25560.00" from="818" to="953" type="car" />
    <trip id="1826_0" depart="25584.00" from="166" to="662" type="car" />
    <trip id="509_0" depart="25609.00" from="736" to="1017" type="car" />
    <trip id="433_0" depart="25611.00" from="386" to="1207" type="car" />
    <trip id="1408_0" depart="25630.00" from="171" to="869" type="car" />
    <trip id="348_0" depart="25653.00" from="617" to="1066" type="car" />
    <trip id="1342_0" depart="25667.00" from="559" to="386" type="car" />
    <trip id="1717_0" depart="25676.00" from="983" to="1016" type="car" />
    <trip id="617_0" depart="25679.00" from="453" to="601" type="car" />
    <trip id="1799_0" depart="25702.00" from="833" to="577" type="car" />
    <trip id="1527_0" depart="25705.00" from="143" to="785" type="car" />
    <trip id="780_0" depart="25707.00" from="92" to="951" type="car" />
    <trip id="394_0" depart="25710.00" from="162" to="1120" type="car" />
    <trip id="1123_0" depart="25714.00" from="1085" to="575" type="car" />
    <trip id="79_0" depart="25723.00" from="632" to="452" type="car" />
    <trip id="925_0" depart="25749.00" from="637" to="741" type="car" />
    <trip id="741_0" depart="25756.00" from="846" to="986" type="car" />
    <trip id="579_0" depart="25763.00" from="769" to="218" type="car" />
    <trip id="0_0" depart="25878.00" from="992" to="636" type="car" />
    <trip id="1468_0" depart="25906.00" from="974" to="568" type="car" />
    <trip id="1962_0" depart="25907.00" from="845" to="289" type="car" />
    <trip id="679_0" depart="25910.00" from="944" to="839" type="car" />
    <trip id="2394_0" depart="25953.00" from="992" to="924" type="car" />
    <trip id="1027_0" depart="25967.00" from="867" to="221" type="car" />
    <trip id="1111_0" depart="25994.00" from="923" to="954" type="car" />
    <trip id="1768_0" depart="26007.00" from="987" to="1013" type="car" />
    <trip id="305_0" depart="26014.00" from="129" to="75" type="car" />
    <trip id="1850_0" depart="26029.00" from="283" to="460" type="car" />
    <trip id="1828_0" depart="26055.00" from="225" to="547" type="car" />
    <trip id="2161_0" depart="26075.00" from="823" to="559" type="car" />
    <trip id="1784_0" depart="26085.00" from="1205" to="89" type="car" />
    <trip id="2412_0" depart="26108.00" from="1149" to="1109" type="car" />
    <trip id="170_0" depart="26119.00" from="449" to="44" type="car" />
    <trip id="2491_0" depart="26205.00" from="560" to="664" type="car" />
    <trip id="1887_0" depart="26209.00" from="995" to="459" type="car" />
    <trip id="2255_0" depart="26211.00" from="754" to="351" type="car" />
    <trip id="2073_0" depart="26223.00" from="529" to="523" type="car" />
    <trip id="56_0" depart="26237.00" from="931" to="245" type="car" />
    <trip id="1025_0" depart="26260.00" from="100" to="470" type="car" />
    <trip id="1418_0" depart="26298.00" from="1186" to="1215" type="car" />
    <trip id="397_0" depart="26308.00" from="583" to="41" type="car" />
    <trip id="1937_0" depart="26335.00" from="456" to="254" type="car" />
    <trip id="1947_0" depart="26343.00" from="1064" to="427" type="car" />
    <trip id="66_0" depart="26347.00" from="1173" to="638" type="car" />
    <trip id="2481_0" depart="26356.00" from="465" to="654" type="car" />
    <trip id="1650_0" depart="26358.00" from="1134" to="165" type="car" />
    <trip id="850_0" depart="26359.00" from="740" to="249" type="car" />
    <trip id="1338_0" depart="26369.00" from="148" to="604" type="car" />
    <trip id="2000_0" depart="26371.00" from="35" to="249" type="car" />
    <trip id="237_0" depart="26385.00" from="981" to="36" type="car" />
    <trip id="2327_0" depart="26414.00" from="1114" to="1090" type="car" />
    <trip id="392_0" depart="26416.00" from="439" to="408" type="car" />
    <trip id="1754_0" depart="26420.00" from="278" to="863" type="car" />
    <trip id="1973_0" depart="26437.00" from="456" to="621" type="car" />
    <trip id="2299_0" depart="26439.00" from="753" to="183" type="car" />
    <trip id="705_0" depart="26464.00" from="898" to="1070" type="car" />
    <trip id="887_0" depart="26466.00" from="308" to="982" type="car" />
    <trip id="1184_0" depart="26488.00" from="574" to="896" type="car" />
    <trip id="2133_0" depart="26501.00" from="734" to="495" type="car" />
    <trip id="605_0" depart="26505.00" from="292" to="507" type="car" />
    <trip id="2393_0" depart="26507.00" from="1097" to="560" type="car" />
    <trip id="1766_0" depart="26513.00" from="1164" to="567" type="car" />
    <trip id="2043_0" depart="26519.00" from="95" to="1016" type="car" />
    <trip id="861_0" depart="26520.00" from="816" to="505" type="car" />
    <trip id="723_0" depart="26541.00" from="916" to="1158" type="car" />
    <trip id="1042_0" depart="26562.00" from="1062" to="671" type="car" />
    <trip id="1906_0" depart="26568.00" from="1050" to="184" type="car" />
    <trip id="1686_0" depart="26575.00" from="88" to="1062" type="car" />
    <trip id="2374_0" depart="26575.00" from="1120" to="741" type="car" />
    <trip id="1542_0" depart="26579.00" from="1227" to="631" type="car" />
    <trip id="414_0" depart="26584.00" from="826" to="472" type="car" />
    <trip id="321_0" depart="26602.00" from="539" to="717" type="car" />
    <trip id="2178_0" depart="26606.00" from="721" to="433" type="car" />
    <trip id="653_0" depart="26611.00" from="187" to="97" type="car" />
    <trip id="306_0" depart="26644.00" from="738" to="655" type="car" />
    <trip id="822_0" depart="26647.00" from="597" to="1189" type="car" />
    <trip id="8_0" depart="26647.00" from="1154" to="569" type="car" />
    <trip id="110_0" depart="26655.00" from="751" to="768" type="car" />
    <trip id="1726_0" depart="26655.00" from="559" to="290" type="car" />
    <trip id="208_0" depart="26660.00" from="81" to="112" type="car" />
    <trip id="1193_0" depart="26666.00" from="1171" to="810" type="car" />
    <trip id="1931_0" depart="26672.00" from="1101" to="765" type="car" />
    <trip id="2236_0" depart="26672.00" from="193" to="810" type="car" />
    <trip id="838_0" depart="26680.00" from="1045" to="397" type="car" />
    <trip id="1343_0" depart="26684.00" from="977" to="1153" type="car" />
    <trip id="477_0" depart="26685.00" from="673" to="853" type="car" />
    <trip id="2386_0" depart="26711.00" from="606" to="513" type="car" />
    <trip id="603_0" depart="26711.00" from="140" to="479" type="car" />
    <trip id="801_0" depart="26715.00" from="1159" to="1104" type="car" />
    <trip id="1612_0" depart="26726.00" from="279" to="244" type="car" />
    <trip id="2382_0" depart="26732.00" from="719" to="1112" type="car" />
    <trip id="486_0" depart="26769.00" from="653" to="928" type="car" />
    <trip id="914_0" depart="26772.00" from="631" to="394" type="car" />
    <trip id="2132_0" depart="26781.00" from="1184" to="1127" type="car" />
    <trip id="1978_0" depart="26788.00" from="1006" to="1055" type="car" />
    <trip id="2441_0" depart="26789.00" from="235" to="498" type="car" />
    <trip id="1509_0" depart="26799.00" from="580" to="833" type="car" />
    <trip id="1070_0" depart="26828.00" from="217" to="460" type="car" />
    <trip id="100_0" depart="26829.00" from="564" to="1069" type="car" />
    <trip id="1705_0" depart="26843.00" from="395" to="577" type="car" />
    <trip id="648_0" depart="26845.00" from="868" to="404" type="car" />
    <trip id="18_0" depart="26857.00" from="338" to="929" type="car" />
    <trip id="1009_0" depart="26861.00" from="387" to="343" type="car" />
    <trip id="645_0" depart="26864.00" from="450" to="1054" type="car" />
    <trip id="2419_0" depart="26877.00" from="829" to="993" type="car" />
    <trip id="1745_0" depart="26886.00" from="567" to="1087" type="car" />
    <trip id="2495_0" depart="26889.00" from="314" to="914" type="car" />
    <trip id="1479_0" depart="26893.00" from="1159" to="479" type="car" />
    <trip id="95_0" depart="26893.00" from="837" to="267" type="car" />
    <trip id="938_0" depart="26895.00" from="1069" to="475" type="car" />
    <trip id="371_0" depart="26907.00" from="782" to="1034" type="car" />
    <trip id="1134_0" depart="26908.00" from="486" to="675" type="car" />
    <trip id="261_0" depart="26908.00" from="1156" to="91" type="car" />
    <trip id="1980_0" depart="26928.00" from="778" to="611" type="car" />
    <trip id="2252_0" depart="26937.00" from="478" to="1032" type="car" />
    <trip id="2367_0" depart="26945.00" from="738" to="1157" type="car" />
    <trip id="1426_0" depart="26986.00" from="259" to="894" type="car" />
    <trip id="1438_0" depart="27003.00" from="964" to="820" type="car" />
    <trip id="616_0" depart="27008.00" from="481" to="573" type="car" />
    <trip id="859_0" depart="27019.00" from="974" to="625" type="car" />
    <trip id="2465_0" depart="27021.00" from="1161" to="1204" type="car" />
    <trip id="2371_0" depart="27037.00" from="4" to="753" type="car" />
    <trip id="880_0" depart="27045.00" from="676" to="741" type="car" />
    <trip id="1381_0" depart="27061.00" from="1164" to="662" type="car" />
    <trip id="1031_0" depart="27064.00" from="724" to="940" type="car" />
    <trip id="1003_0" depart="27068.00" from="218" to="867" type="car" />
    <trip id="1986_0" depart="27077.00" from="1055" to="274" type="car" />
    <trip id="1224_0" depart="27092.00" from="148" to="611" type="car" />
    <trip id="2303_0" depart="27093.00" from="459" to="95" type="car" />
    <trip id="269_0" depart="27093.00" from="959" to="549" type="car" />
    <trip id="439_0" depart="27105.00" from="764" to="466" type="car" />
    <trip id="758_0" depart="27113.00" from="945" to="284" type="car" />
    <trip id="157_0" depart="27119.00" from="662" to="778" type="car" />
    <trip id="590_0" depart="27132.00" from="251" to="1123" type="car" />
    <trip id="895_0" depart="27133.00" from="818" to="969" type="car" />
    <trip id="231_0" depart="27153.00" from="1107" to="54" type="car" />
    <trip id="1471_0" depart="27163.00" from="722" to="997" type="car" />
    <trip id="2180_0" depart="27176.00" from="629" to="699" type="car" />
    <trip id="20_0" depart="27192.00" from="481" to="1078" type="car" />
    <trip id="1501_0" depart="27201.00" from="289" to="447" type="car" />
    <trip id="2007_0" depart="27204.00" from="1017" to="938" type="car" />
    <trip id="753_0" depart="27209.00" from="731" to="1084" type="car" />
    <trip id="1778_0" depart="27218.00" from="219" to="385" type="car" />
    <trip id="2455_0" depart="27227.00" from="55" to="104" type="car" />
    <trip id="932_0" depart="27231.00" from="752" to="630" type="car" />
    <trip id="266_0" depart="27236.00" from="929" to="713" type="car" />
    <trip id="1744_0" depart="27237.00" from="1" to="265" type="car" />
    <trip id="725_0" depart="27259.00" from="723" to="351" type="car" />
    <trip id="863_0" depart="27260.00" from="831" to="916" type="car" />
    <trip id="2285_0" depart="27282.00" from="920" to="1186" type="car" />
    <trip id="1870_0" depart="27292.00" from="456" to="457" type="car" />
    <trip id="307_0" depart="27296.00" from="185" to="975" type="car" />
    <trip id="117_0" depart="27305.00" from="1048" to="229" type="car" />
    <trip id="1277_0" depart="27305.00" from="1208" to="224" type="car" />
    <trip id="125_0" depart="27320.00" from="602" to="41" type="car" />
    <trip id="528_0" depart="27321.00" from="1202" to="561" type="car" />
    <trip id="2294_0" depart="27336.00" from="788" to="596" type="car" />
    <trip id="2111_0" depart="27376.00" from="558" to="859" type="car" />
    <trip id="1794_0" depart="27380.00" from="1171" to="174" type="car" />
    <trip id="2089_0" depart="27407.00" from="597" to="1093" type="car" />
    <trip id="1244_0" depart="27423.00" from="438" to="439" type="car" />
    <trip id="1220_0" depart="27438.00" from="600" to="605" type="car" />
    <trip id="318_0" depart="27461.00" from="1120" to="623" type="car" />
    <trip id="2344_0" depart="27475.00" from="580" to="770" type="car" />
    <trip id="1221_0" depart="27483.00" from="955" to="397" type="car" />
    <trip id="275_0" depart="27499.00" from="556" to="239" type="car" />
    <trip id="1867_0" depart="27512.00" from="80" to="606" type="car" />
    <trip id="2439_0" depart="27524.00" from="923" to="184" type="car" />
    <trip id="1241_0" depart="27529.00" from="948" to="944" type="car" />
    <trip id="419_0" depart="27542.00" from="316" to="991" type="car" />
    <trip id="1082_0" depart="27549.00" from="825" to="282" type="car" />
    <trip id="324_0" depart="27550.00" from="251" to="195" type="car" />
    <trip id="449_0" depart="27567.00" from="183" to="220" type="car" />
    <trip id="2146_0" depart="27581.00" from="742" to="396" type="car" />
    <trip id="2033_0" depart="27608.00" from="639" to="1152" type="car" />
    <trip id="2155_0" depart="27611.00" from="401" to="593" type="car" />
    <trip id="1462_0" depart="27619.00" from="391" to="1154" type="car" />
    <trip id="1785_0" depart="27624.00" from="1083" to="401" type="car" />
    <trip id="927_0" depart="27629.00" from="85" to="1028" type="car" />
    <trip id="1658_0" depart="27632.00" from="613" to="910" type="car" />
    <trip id="136_0" depart="27642.00" from="1133" to="1138" type="car" />
    <trip id="2092_0" depart="27658.00" from="187" to="937" type="car" />
    <trip id="2094_0" depart="27664.00" from="567" to="994" type="car" />
    <trip id="1883_0" depart="27683.00" from="715" to="605" type="car" />
    <trip id="2163_0" depart="27687.00" from="537" to="1152" type="car" />
    <trip id="933_0" depart="27704.00" from="1162" to="816" type="car" />
    <trip id="1964_0" depart="27724.00" from="161" to="144" type="car" />
    <trip id="1375_0" depart="27728.00" from="863" to="557" type="car" />
    <trip id="1298_0" depart="27729.00" from="785" to="599" type="car" />
    <trip id="659_0" depart="27743.00" from="931" to="288" type="car" />
    <trip id="1803_0" depart="27760.00" from="252" to="749" type="car" />
    <trip id="441_0" depart="27768.00" from="1055" to="1041" type="car" />
    <trip id="256_0" depart="27773.00" from="652" to="980" type="car" />
    <trip id="1789_0" depart="27781.00" from="1208" to="338" type="car" />
    <trip id="646_0" depart="27796.00" from="942" to="273" type="car" />
    <trip id="1104_0" depart="27803.00" from="185" to="547" type="car" />
    <trip id="72_0" depart="27805.00" from="625" to="620" type="car" />
    <trip id="273_0" depart="27808.00" from="841" to="196" type="car" />
    <trip id="1164_0" depart="27815.00" from="432" to="478" type="car" />
    <trip id="2221_0" depart="27819.00" from="548" to="1119" type="car" />
    <trip id="1033_0" depart="27829.00" from="668" to="1041" type="car" />
    <trip id="150_0" depart="27830.00" from="1051" to="851" type="car" />
    <trip id="715_0" depart="27832.00" from="497" to="928" type="car" />
    <trip id="168_0" depart="27839.00" from="1054" to="1224" type="car" />
    <trip id="559_0" depart="27856.00" from="1180" to="1095" type="car" />
    <trip id="996_0" depart="27866.00" from="868" to="717" type="car" />
    <trip id="1485_0" depart="27868.00" from="269" to="160" type="car" />
    <trip id="1899_0" depart="27871.00" from="288" to="847" type="car" />
    <trip id="1957_0" depart="27874.00" from="600" to="957" type="car" />
    <trip id="894_0" depart="27879.00" from="664" to="1064" type="car" />
    <trip id="248_0" depart="27884.00" from="946" to="723" type="car" />
    <trip id="1563_0" depart="27886.00" from="1071" to="229" type="car" />
    <trip id="374_0" depart="27907.00" from="374" to="1037" type="car" />
    <trip id="1467_0" depart="27910.00" from="787" to="922" type="car" />
    <trip id="1550_0" depart="27910.00" from="902" to="1033" type="car" />
    <trip id="197_0" depart="27933.00" from="398" to="980" type="car" />
    <trip id="588_0" depart="27940.00" from="938" to="1071" type="car" />
    <trip id="2200_0" depart="27945.00" from="65" to="59" type="car" />
    <trip id="494_0" depart="27946.00" from="284" to="564" type="car" />
    <trip id="2331_0" depart="27951.00" from="828" to="249" type="car" />
    <trip id="1556_0" depart="27956.00" from="600" to="1141" type="car" />
    <trip id="536_0" depart="27957.00" from="479" to="575" type="car" />
    <trip id="1026_0" depart="27960.00" from="1203" to="91" type="car" />
    <trip id="535_0" depart="27979.00" from="822" to="716" type="car" />
    <trip id="2400_0" depart="27985.00" from="869" to="485" type="car" />
    <trip id="2215_0" depart="27998.00" from="219" to="1013" type="car" />
    <trip id="1565_0" depart="28006.00" from="332" to="262" type="car" />
    <trip id="1879_0" depart="28006.00" from="459" to="893" type="car" />
    <trip id="1757_0" depart="28015.00" from="1171" to="195" type="car" />
    <trip id="2038_0" depart="28018.00" from="665" to="599" type="car" />
    <trip id="971_0" depart="28038.00" from="340" to="567" type="car" />
    <trip id="1865_0" depart="28039.00" from="830" to="888" type="car" />
    <trip id="754_0" depart="28060.00" from="742" to="44" type="car" />
    <trip id="531_0" depart="28065.00" from="1022" to="951" type="car" />
    <trip id="2404_0" depart="28088.00" from="182" to="261" type="car" />
    <trip id="2289_0" depart="28094.00" from="816" to="1207" type="car" />
    <trip id="810_0" depart="28103.00" from="673" to="860" type="car" />
    <trip id="1415_0" depart="28137.00" from="788" to="559" type="car" />
    <trip id="1573_0" depart="28138.00" from="1179" to="975" type="car" />
    <trip id="189_0" depart="28138.00" from="1124" to="950" type="car" />
    <trip id="558_0" depart="28141.00" from="1155" to="1038" type="car" />
    <trip id="1682_0" depart="28148.00" from="397" to="184" type="car" />
    <trip id="2341_0" depart="28159.00" from="138" to="371" type="car" />
    <trip id="31_0" depart="28166.00" from="977" to="37" type="car" />
    <trip id="1825_0" depart="28173.00" from="843" to="549" type="car" />
    <trip id="875_0" depart="28173.00" from="224" to="931" type="car" />
    <trip id="1584_0" depart="28174.00" from="1055" to="997" type="car" />
    <trip id="2048_0" depart="28183.00" from="287" to="912" type="car" />
    <trip id="310_0" depart="28190.00" from="770" to="601" type="car" />
    <trip id="1388_0" depart="28195.00" from="248" to="723" type="car" />
    <trip id="2405_0" depart="28196.00" from="118" to="48" type="car" />
    <trip id="2364_0" depart="28210.00" from="451" to="761" type="car" />
    <trip id="1809_0" depart="28216.00" from="1200" to="284" type="car" />
    <trip id="502_0" depart="28216.00" from="1043" to="1101" type="car" />
    <trip id="2337_0" depart="28221.00" from="954" to="1179" type="car" />
    <trip id="793_0" depart="28223.00" from="633" to="983" type="car" />
    <trip id="185_0" depart="28240.00" from="947" to="851" type="car" />
    <trip id="891_0" depart="28241.00" from="395" to="170" type="car" />
    <trip id="841_0" depart="28254.00" from="615" to="771" type="car" />
    <trip id="2445_0" depart="28279.00" from="1107" to="75" type="car" />
    <trip id="929_0" depart="28281.00" from="907" to="634" type="car" />
    <trip id="1802_0" depart="28285.00" from="744" to="765" type="car" />
    <trip id="1394_0" depart="28297.00" from="2" to="812" type="car" />
    <trip id="410_0" depart="28297.00" from="278" to="726" type="car" />
    <trip id="1230_0" depart="28299.00" from="505" to="910" type="car" />
    <trip id="1671_0" depart="28303.00" from="910" to="845" type="car" />
    <trip id="1217_0" depart="28304.00" from="1131" to="225" type="car" />
    <trip id="399_0" depart="28310.00" from="196" to="425" type="car" />
    <trip id="291_0" depart="28315.00" from="1210" to="1202" type="car" />
    <trip id="1429_0" depart="28316.00" from="195" to="624" type="car" />
    <trip id="1925_0" depart="28318.00" from="736" to="577" type="car" />
    <trip id="2145_0" depart="28327.00" from="477" to="1022" type="car" />
    <trip id="1000_0" depart="28351.00" from="932" to="634" type="car" />
    <trip id="2342_0" depart="28351.00" from="362" to="953" type="car" />
    <trip id="295_0" depart="28377.00" from="624" to="751" type="car" />
    <trip id="2126_0" depart="28379.00" from="224" to="274" type="car" />
    <trip id="2260_0" depart="28381.00" from="1125" to="382" type="car" />
    <trip id="1692_0" depart="28390.00" from="389" to="1060" type="car" />
    <trip id="1936_0" depart="28393.00" from="397" to="1208" type="car" />
    <trip id="862_0" depart="28397.00" from="667" to="726" type="car" />
    <trip id="1762_0" depart="28404.00" from="1208" to="938" type="car" />
    <trip id="2413_0" depart="28405.00" from="256" to="639" type="car" />
    <trip id="2187_0" depart="28407.00" from="497" to="1029" type="car" />
    <trip id="188_0" depart="28420.00" from="1150" to="731" type="car" />
    <trip id="1283_0" depart="28427.00" from="890" to="138" type="car" />
    <trip id="139_0" depart="28429.00" from="1124" to="188" type="car" />
    <trip id="1606_0" depart="28432.00" from="158" to="67" type="car" />
    <trip id="955_0" depart="28454.00" from="1212" to="460" type="car" />
    <trip id="402_0" depart="28457.00" from="404" to="922" type="car" />
    <trip id="1496_0" depart="28466.00" from="945" to="435" type="car" />
    <trip id="190_0" depart="28469.00" from="970" to="1079" type="car" />
    <trip id="1204_0" depart="28488.00" from="1186" to="41" type="car" />
    <trip id="1425_0" depart="28495.00" from="1016" to="1178" type="car" />
    <trip id="594_0" depart="28496.00" from="293" to="691" type="car" />
    <trip id="1364_0" depart="28511.00" from="725" to="246" type="car" />
    <trip id="2463_0" depart="28512.00" from="1223" to="640" type="car" />
    <trip id="108_0" depart="28516.00" from="974" to="545" type="car" />
    <trip id="1875_0" depart="28522.00" from="727" to="1158" type="car" />
    <trip id="632_0" depart="28525.00" from="865" to="537" type="car" />
    <trip id="352_0" depart="28527.00" from="821" to="949" type="car" />
    <trip id="1945_0" depart="28530.00" from="310" to="250" type="car" />
    <trip id="2373_0" depart="28536.00" from="1148" to="715" type="car" />
    <trip id="1015_0" depart="28539.00" from="466" to="507" type="car" />
    <trip id="1344_0" depart="28539.00" from="711" to="585" type="car" />
    <trip id="1146_0" depart="28542.00" from="566" to="1091" type="car" />
    <trip id="415_0" depart="28542.00" from="748" to="1154" type="car" />
    <trip id="1270_0" depart="28543.00" from="931" to="580" type="car" />
    <trip id="2109_0" depart="28552.00" from="934" to="1048" type="car" />
    <trip id="1454_0" depart="28556.00" from="863" to="1104" type="car" />
    <trip id="42_0" depart="28562.00" from="660" to="825" type="car" />
    <trip id="2076_0" depart="28564.00" from="279" to="249" type="car" />
    <trip id="2286_0" depart="28576.00" from="309" to="272" type="car" />
    <trip id="1035_0" depart="28577.00" from="374" to="1049" type="car" />
    <trip id="1373_0" depart="28583.00" from="374" to="560" type="car" />
    <trip id="1402_0" depart="28584.00" from="909" to="1084" type="car" />
    <trip id="523_0" depart="28584.00" from="921" to="560" type="car" />
    <trip id="202_0" depart="28596.00" from="925" to="221" type="car" />
    <trip id="2011_0" depart="28611.00" from="1138" to="481" type="car" />
    <trip id="2115_0" depart="28619.00" from="383" to="970" type="car" />
    <trip id="2184_0" depart="28623.00" from="273" to="496" type="car" />
    <trip id="649_0" depart="28657.00" from="865" to="459" type="car" />
    <trip id="699_0" depart="28675.00" from="1130" to="863" type="car" />
    <trip id="709_0" depart="28683.00" from="949" to="632" type="car" />
    <trip id="1535_0" depart="28688.00" from="916" to="311" type="car" />
    <trip id="1684_0" depart="28691.00" from="1045" to="1095" type="car" />
    <trip id="1305_0" depart="28696.00" from="915" to="1025" type="car" />
    <trip id="36_0" depart="28698.00" from="647" to="1047" type="car" />
    <trip id="2122_0" depart="28706.00" from="168" to="192" type="car" />
    <trip id="669_0" depart="28717.00" from="81" to="75" type="car" />
    <trip id="983_0" depart="28728.00" from="546" to="624" type="car" />
    <trip id="555_0" depart="28732.00" from="929" to="1184" type="car" />
    <trip id="2194_0" depart="28741.00" from="1072" to="31" type="car" />
    <trip id="1873_0" depart="28742.00" from="1007" to="1210" type="car" />
    <trip id="2100_0" depart="28742.00" from="1007" to="383" type="car" />
    <trip id="2172_0" depart="28745.00" from="775" to="1012" type="car" />
    <trip id="549_0" depart="28746.00" from="458" to="266" type="car" />
    <trip id="1294_0" depart="28748.00" from="769" to="1013" type="car" />
    <trip id="893_0" depart="28749.00" from="749" to="285" type="car" />