<?xml version="1.0" encoding="UTF-8"?>
<!DOCTYPE network SYSTEM "http://www.matsim.org/files/dtd/network_v2.dtd">
<network>

<!-- ====================================================================== -->

	<nodes>
		<node id="1076629757" x="177374.17900291434" y="4953027.680005782" >
		</node>
		<node id="1076629758" x="177376.20216558885" y="4953034.282824192" >
		</node>
		<node id="1076629761" x="177375.83187828725" y="4953041.1835038485" >
		</node>
		<node id="1076629764" x="177359.71571630915" y="4953056.343948218" >
		</node>
		<node id="1076629766" x="177352.77471208794" y="4953056.301283075" >
		</node>
		<node id="1076629767" x="177346.2641129649" y="4953053.898500694" >
		</node>
		<node id="1076629769" x="177338.08209274284" y="4953044.775097473" >
		</node>
		<node id="1076629770" x="177336.41860304557" y="4953038.054074115" >
		</node>
		<node id="1076629771" x="177337.16260044574" y="4953031.1569711985" >
		</node>
		<node id="1076629776" x="177351.62955225748" y="4953017.34847118" >
		</node>
		<node id="1076629777" x="177358.5620136045" y="4953016.901574154" >
		</node>
		<node id="1076629780" x="177365.2248502092" y="4953018.851311688" >
		</node>
		<node id="1076629789" x="177655.46661274682" y="4952706.229889874" >
		</node>
		<node id="1076629791" x="177656.8253464513" y="4952692.854338512" >
		</node>
		<node id="1076629793" x="177661.55490294" y="4952688.241575751" >
		</node>
		<node id="1076629794" x="177671.95741400134" y="4952686.285372738" >
		</node>
		<node id="1076629795" x="177681.0361821368" y="4952691.722880048" >
		</node>
		<node id="1076629797" x="177684.1725092933" y="4952699.929446657" >
		</node>
		<node id="1076629799" x="177678.934455611" y="4952712.184703059" >
		</node>
		<node id="1076629800" x="177667.29086504597" y="4952715.550367186" >
		</node>
		<node id="1131729791" x="179086.8499125298" y="4953793.384238339" >
		</node>
		<node id="122006274" x="179107.33530243603" y="4952990.780944585" >
		</node>
		<node id="122006276" x="178983.3022488106" y="4953071.862239019" >
		</node>
		<node id="122006279" x="178576.92937132012" y="4953216.750709218" >
		</node>
		<node id="122006281" x="178534.1850015677" y="4953237.633429998" >
		</node>
		<node id="122006284" x="178432.6135737172" y="4953308.319840945" >
		</node>
		<node id="1419841705" x="177399.50730430405" y="4952993.9181541875" >
		</node>
		<node id="1433699948" x="179056.85372961254" y="4952735.685271977" >
		</node>
		<node id="1433699957" x="179053.7326967126" y="4952736.6979740625" >
		</node>
		<node id="1433699960" x="179042.31288489676" y="4952743.769363402" >
		</node>
		<node id="1433699964" x="179032.90080583346" y="4952749.337781529" >
		</node>
		<node id="1433699966" x="179027.51874001365" y="4952751.554286302" >
		</node>
		<node id="1433699968" x="179025.34530671954" y="4952759.312761705" >
		</node>
		<node id="1433699969" x="179050.0734798457" y="4952766.200782976" >
		</node>
		<node id="1433699970" x="179030.3975372619" y="4952770.119385861" >
		</node>
		<node id="1433699976" x="179035.2146578593" y="4952794.735080188" >
		</node>
		<node id="1433716824" x="178536.09830996004" y="4952576.650901436" >
		</node>
		<node id="1433716825" x="178596.7147797984" y="4952598.353276588" >
		</node>
		<node id="1433716826" x="178571.53321253805" y="4952669.675099545" >
		</node>
		<node id="1433716827" x="178574.2395478777" y="4952694.4848629" >
		</node>
		<node id="1433716828" x="178522.32351325115" y="4952698.229322303" >
		</node>
		<node id="1433716829" x="178530.54018293432" y="4952713.822363413" >
		</node>
		<node id="1433716831" x="178478.3751650959" y="4952717.033933378" >
		</node>
		<node id="1433716844" x="178984.44843806222" y="4952727.148932438" >
		</node>
		<node id="1433716845" x="178874.56333074666" y="4952736.926291934" >
		</node>
		<node id="1433716846" x="178888.33905008808" y="4952744.136089734" >
		</node>
		<node id="1433716849" x="178197.02576891828" y="4952871.885644961" >
		</node>
		<node id="1433716850" x="178787.50948853703" y="4953097.531461741" >
		</node>
		<node id="1433716851" x="178783.4410232983" y="4953114.471344314" >
		</node>
		<node id="1433716852" x="178773.49405383854" y="4953127.160449278" >
		</node>
		<node id="1447327555" x="178751.35626176867" y="4954027.179960326" >
		</node>
		<node id="1476164942" x="178199.86404905206" y="4953371.9419070035" >
		</node>
		<node id="1476164945" x="178200.29433644016" y="4953373.55744336" >
		</node>
		<node id="1476164946" x="178200.23065574915" y="4953376.901435912" >
		</node>
		<node id="1476164947" x="178187.25528301793" y="4953378.083214919" >
		</node>
		<node id="1476164948" x="178199.72799291316" y="4953378.296244267" >
		</node>
		<node id="1476164949" x="178189.0392200445" y="4953379.430776684" >
		</node>
		<node id="1476164953" x="178190.95938159834" y="4953380.482006099" >
		</node>
		<node id="1476164955" x="178195.61027848237" y="4953381.307930807" >
		</node>
		<node id="1476164957" x="178412.23785609868" y="4953373.579172572" >
		</node>
		<node id="1476164959" x="178388.13512011716" y="4953379.6916994145" >
		</node>
		<node id="1476164961" x="178436.6043409687" y="4953379.135270431" >
		</node>
		<node id="1476164963" x="178458.64612814347" y="4953394.339746506" >
		</node>
		<node id="1476164965" x="178268.00504343846" y="4953482.954979272" >
		</node>
		<node id="1476164966" x="178249.85139566142" y="4953500.776038538" >
		</node>
		<node id="1476164968" x="178238.71604827273" y="4953503.4695573095" >
		</node>
		<node id="1476164970" x="178269.176083118" y="4953502.45147052" >
		</node>
		<node id="1476164972" x="178266.42760111787" y="4953505.9850403275" >
		</node>
		<node id="1476164987" x="178133.599406065" y="4953604.583833097" >
		</node>
		<node id="1476164995" x="178133.347943365" y="4953618.817143008" >
		</node>
		<node id="1476165000" x="177875.3327307626" y="4953691.396961214" >
		</node>
		<node id="1476165001" x="177880.93863174197" y="4953694.480128991" >
		</node>
		<node id="1476165002" x="178079.90697882598" y="4953701.58568978" >
		</node>
		<node id="1476165003" x="177880.7827074029" y="4953713.797942838" >
		</node>
		<node id="1476165004" x="178104.10843562614" y="4953717.2268362455" >
		</node>
		<node id="1476165006" x="177891.52340157446" y="4953727.560371677" >
		</node>
		<node id="1476165008" x="178086.92280049378" y="4953717.794919069" >
		</node>
		<node id="1476165015" x="177908.30617645703" y="4953733.248106662" >
		</node>
		<node id="1476165017" x="178109.1209385252" y="4953733.903543381" >
		</node>
		<node id="1476165018" x="178085.82633028738" y="4953734.99920521" >
		</node>
		<node id="1476165019" x="178106.2050700416" y="4953750.641808565" >
		</node>
		<node id="1476165020" x="177861.25907312962" y="4953769.718539972" >
		</node>
		<node id="1476165022" x="178062.5742909261" y="4953770.069028934" >
		</node>
		<node id="1476165023" x="178067.50841824757" y="4953779.60025641" >
		</node>
		<node id="1476165031" x="177840.0456584447" y="4953829.509915714" >
		</node>
		<node id="1476165033" x="177986.522603554" y="4953830.804051571" >
		</node>
		<node id="1476165035" x="177994.40078234067" y="4953839.609181508" >
		</node>
		<node id="1476165036" x="177835.3136128261" y="4953850.604227149" >
		</node>
		<node id="1476165042" x="177892.24820976862" y="4953907.90702414" >
		</node>
		<node id="1476165044" x="177882.79027008882" y="4953908.368203676" >
		</node>
		<node id="1476167527" x="177891.7378442703" y="4953917.420485763" >
		</node>
		<node id="1476167533" x="177902.8780190724" y="4953926.775323219" >
		</node>
		<node id="1476173560" x="177374.63618199417" y="4954148.092706196" >
		</node>
		<node id="1476173566" x="177394.32390786638" y="4954164.836775197" >
		</node>
		<node id="1631231228" x="177997.06285584345" y="4953878.12969661" >
		</node>
		<node id="1631231229" x="177988.56182188564" y="4953912.563744191" >
		</node>
		<node id="1631231232" x="177975.49544674653" y="4953891.367029305" >
		</node>
		<node id="1631231234" x="177987.7879819878" y="4953871.9110532915" >
		</node>
		<node id="1631231236" x="177975.6411879076" y="4953877.094401822" >
		</node>
		<node id="1631231239" x="178017.51828943985" y="4953980.006131645" >
		</node>
		<node id="1631231240" x="177999.49750853598" y="4953887.897014672" >
		</node>
		<node id="1631231241" x="178032.74827714614" y="4953973.388288022" >
		</node>
		<node id="1631231244" x="178062.10524840746" y="4954043.773019137" >
		</node>
		<node id="1631231257" x="178003.6813757667" y="4953903.412328488" >
		</node>
		<node id="1631231259" x="178048.0220257825" y="4954049.7990340255" >
		</node>
		<node id="1631231262" x="177980.42590468482" y="4953873.124934386" >
		</node>
		<node id="1642859385" x="178020.06582106772" y="4953986.304490592" >
		</node>
		<node id="1642859403" x="178005.64571068634" y="4953952.313115516" >
		</node>
		<node id="1642859406" x="177982.9182880717" y="4953903.468888146" >
		</node>
		<node id="1762465055" x="177365.16633023415" y="4954168.64501338" >
		</node>
		<node id="1762465056" x="177365.7332834631" y="4954182.20283966" >
		</node>
		<node id="1762465057" x="177363.7864596196" y="4954194.438706569" >
		</node>
		<node id="1762465058" x="177360.19439954823" y="4954204.763494099" >
		</node>
		<node id="1786899256" x="177343.02483477228" y="4953021.865760028" >
		</node>
		<node id="1786899257" x="177370.32705905044" y="4953050.9468025565" >
		</node>
		<node id="1786899260" x="177695.5349128006" y="4953372.084486807" >
		</node>
		<node id="1942501471" x="178691.21423876006" y="4952624.337787714" >
		</node>
		<node id="1942501475" x="178786.3383466513" y="4952656.6622579275" >
		</node>
		<node id="1942501482" x="178984.61692789925" y="4952731.973531086" >
		</node>
		<node id="2023217239" x="177531.77125618618" y="4952603.521077984" >
		</node>
		<node id="2023217240" x="177720.24667848548" y="4952594.951476338" >
		</node>
		<node id="2023217246" x="177751.23068911047" y="4952649.6971336035" >
		</node>
		<node id="2023217247" x="177887.83977829217" y="4952676.975042895" >
		</node>
		<node id="2032810861" x="177892.7352056359" y="4953528.842734417" >
		</node>
		<node id="2032810907" x="178287.94084505324" y="4953948.160233373" >
		</node>
		<node id="2035506535" x="179095.25234593678" y="4953013.753908188" >
		</node>
		<node id="2035506536" x="179022.18906767643" y="4953051.9987043915" >
		</node>
		<node id="2035506537" x="179026.37464341853" y="4953061.04441015" >
		</node>
		<node id="2035506538" x="178965.0739548019" y="4953080.096660789" >
		</node>
		<node id="2035506539" x="178968.1114437119" y="4953089.867618301" >
		</node>
		<node id="2035506540" x="178924.977341594" y="4953094.809167884" >
		</node>
		<node id="2035506541" x="178928.8920081592" y="4953103.678993843" >
		</node>
		<node id="2035506542" x="179047.27054560283" y="4953151.486312365" >
		</node>
		<node id="2035506543" x="179010.7099495352" y="4953169.051378265" >
		</node>
		<node id="2035506544" x="178992.89296462102" y="4953175.483538004" >
		</node>
		<node id="2035506545" x="178965.00587349816" y="4953182.550466275" >
		</node>
		<node id="2035506546" x="178903.77221208386" y="4953198.771573587" >
		</node>
		<node id="2035506547" x="178858.53425496176" y="4953211.090118999" >
		</node>
		<node id="2035506548" x="178832.76145971223" y="4953218.954412937" >
		</node>
		<node id="2035506550" x="178804.42828039918" y="4953227.592171121" >
		</node>
		<node id="2035506551" x="178762.36634519888" y="4953236.011624926" >
		</node>
		<node id="2035506552" x="178504.1298823523" y="4953254.933066286" >
		</node>
		<node id="2035506553" x="178709.50193997717" y="4953248.711009769" >
		</node>
		<node id="2035506554" x="178510.36471280083" y="4953263.620255144" >
		</node>
		<node id="2035506555" x="178652.96492367552" y="4953260.435636553" >
		</node>
		<node id="2035506556" x="178611.1473288131" y="4953264.979756001" >
		</node>
		<node id="2035506557" x="178460.2138026887" y="4953285.785760296" >
		</node>
		<node id="2035506558" x="178465.71208884852" y="4953294.3648514105" >
		</node>
		<node id="2035506563" x="178331.75222619" y="4953423.171578013" >
		</node>
		<node id="2035506564" x="178311.8951327026" y="4953430.108369889" >
		</node>
		<node id="2035506585" x="178403.86269915942" y="4953507.851631334" >
		</node>
		<node id="2035506591" x="178612.49264791777" y="4953642.4671482695" >
		</node>
		<node id="2035506593" x="178523.84234688152" y="4953657.987107166" >
		</node>
		<node id="2035506598" x="178613.86393397814" y="4953693.758012298" >
		</node>
		<node id="2035506603" x="177330.46327915118" y="4953785.813989881" >
		</node>
		<node id="2035506605" x="178517.27889659477" y="4953738.059154684" >
		</node>
		<node id="2035506606" x="177310.2443389548" y="4953804.3872472" >
		</node>
		<node id="2035506607" x="177332.26040110644" y="4953808.5533335535" >
		</node>
		<node id="2035506612" x="177179.31688991218" y="4953882.321706116" >
		</node>
		<node id="2035506616" x="177823.41468220367" y="4953866.4773110235" >
		</node>
		<node id="2035506624" x="177973.73142243578" y="4953884.049587281" >
		</node>
		<node id="2035506651" x="177029.60128423013" y="4953970.498660037" >
		</node>
		<node id="2035506653" x="177017.36444096547" y="4953977.837708155" >
		</node>
		<node id="2035506656" x="177001.09996505373" y="4953987.27163967" >
		</node>
		<node id="2035506697" x="178693.30270759529" y="4953999.547943246" >
		</node>
		<node id="2035506712" x="177980.6566011494" y="4954078.630276308" >
		</node>
		<node id="2035506723" x="177158.00876979256" y="4954188.410090824" >
		</node>
		<node id="2035506727" x="177375.16940393316" y="4954215.150608151" >
		</node>
		<node id="2036366404" x="178556.62798040372" y="4954286.963114699" >
		</node>
		<node id="2036822385" x="177518.2542799957" y="4952614.575471063" >
		</node>
		<node id="2036822398" x="177711.37785185338" y="4952778.962228603" >
		</node>
		<node id="2036822403" x="177584.28122201428" y="4952820.824886476" >
		</node>
		<node id="2036822414" x="177501.72875014116" y="4952903.226508724" >
		</node>
		<node id="2036822466" x="177387.34932288062" y="4953007.967436013" >
		</node>
		<node id="2036822467" x="177379.3591847818" y="4953006.496083219" >
		</node>
		<node id="2036822471" x="177323.93337879016" y="4953004.2342203865" >
		</node>
		<node id="2036822473" x="177369.5432839666" y="4953013.178635971" >
		</node>
		<node id="2036822475" x="177383.64374990505" y="4953011.749710349" >
		</node>
		<node id="2036822478" x="177362.64328375016" y="4953018.089509386" >
		</node>
		<node id="2036822479" x="177346.46500294306" y="4953019.611254007" >
		</node>
		<node id="2036822480" x="177377.67252690502" y="4953019.498397717" >
		</node>
		<node id="2036822490" x="177337.22580492363" y="4953041.3211555155" >
		</node>
		<node id="2036822491" x="177374.0956802693" y="4953044.611177502" >
		</node>
		<node id="2036822494" x="177372.46048461593" y="4953047.833349843" >
		</node>
		<node id="2036822495" x="177334.25113966077" y="4953051.770899751" >
		</node>
		<node id="2036822496" x="177375.6499489179" y="4953051.215169956" >
		</node>
		<node id="2036822497" x="177348.5884726686" y="4953054.76224738" >
		</node>
		<node id="2036822498" x="177361.8083298487" y="4953055.59340449" >
		</node>
		<node id="2036822499" x="177340.54733640433" y="4953058.627734366" >
		</node>
		<node id="2036822502" x="177377.2752677902" y="4953058.127423014" >
		</node>
		<node id="2036822505" x="177326.82184313564" y="4953061.830939441" >
		</node>
		<node id="2036822510" x="177370.5511562808" y="4953062.739956691" >
		</node>
		<node id="2036822512" x="177331.7162024757" y="4953065.450424346" >
		</node>
		<node id="2036822513" x="177317.6933226764" y="4953074.62638951" >
		</node>
		<node id="2036822540" x="177267.9913393244" y="4953118.138148196" >
		</node>
		<node id="2036822623" x="178099.39049600263" y="4953472.490857516" >
		</node>
		<node id="2036822624" x="178129.74316353945" y="4953479.829538036" >
		</node>
		<node id="2036822625" x="178178.0993685369" y="4953500.914106139" >
		</node>
		<node id="2036822626" x="178155.77189654397" y="4953505.959030484" >
		</node>
		<node id="2037848823" x="178523.25933267368" y="4953808.46361732" >
		</node>
		<node id="2037848826" x="178498.456246808" y="4953877.6629105" >
		</node>
		<node id="2041913883" x="178451.28218181903" y="4952625.3873259025" >
		</node>
		<node id="2041913885" x="178496.0837492075" y="4952641.562744777" >
		</node>
		<node id="2041913887" x="178746.56228089816" y="4952659.343992692" >
		</node>
		<node id="2041913898" x="178608.74967278837" y="4952683.745761457" >
		</node>
		<node id="2041913899" x="178768.02132484323" y="4952683.253573552" >
		</node>
		<node id="2041913900" x="178790.57157579262" y="4952679.269056323" >
		</node>
		<node id="2041913904" x="178779.7159235616" y="4952687.7716489" >
		</node>
		<node id="2041913914" x="178150.3262479725" y="4952726.183452518" >
		</node>
		<node id="2041913916" x="178764.43988217128" y="4952696.572276836" >
		</node>
		<node id="2041913923" x="178774.21129082574" y="4952699.181615938" >
		</node>
		<node id="2041913924" x="178846.65749973222" y="4952697.501991696" >
		</node>
		<node id="2041913925" x="178673.44104207528" y="4952707.974080115" >
		</node>
		<node id="2041913951" x="178735.96327279555" y="4952730.95240917" >
		</node>
		<node id="2041913960" x="178747.39243729343" y="4952758.078463382" >
		</node>
		<node id="2041913966" x="178743.91127916658" y="4952765.267426807" >
		</node>
		<node id="2041913967" x="178740.02856157307" y="4952768.701301026" >
		</node>
		<node id="2041913968" x="178920.39163911744" y="4952760.202615423" >
		</node>
		<node id="2041913974" x="178682.52396657452" y="4952790.930067231" >
		</node>
		<node id="2041913975" x="178681.09440031712" y="4952791.591462597" >
		</node>
		<node id="2041913980" x="178657.98719976062" y="4952801.46165866" >
		</node>
		<node id="2041914027" x="178546.44193212787" y="4952866.283485786" >
		</node>
		<node id="2041914028" x="178694.2350503967" y="4952858.988907492" >
		</node>
		<node id="2041914043" x="178699.84631282953" y="4952873.030320896" >
		</node>
		<node id="2041914057" x="178705.2390577888" y="4952886.514684839" >
		</node>
		<node id="2041914064" x="178713.66567271395" y="4952895.48268614" >
		</node>
		<node id="2041914066" x="178709.48730413837" y="4952897.127286652" >
		</node>
		<node id="2041914072" x="178667.0858058696" y="4952935.798190424" >
		</node>
		<node id="2041914086" x="178736.55710766785" y="4952952.639544219" >
		</node>
		<node id="2041914090" x="178591.07529169356" y="4953001.021343151" >
		</node>
		<node id="2041914094" x="178758.49386252835" y="4953006.592286608" >
		</node>
		<node id="2041914098" x="178932.55219618708" y="4953001.703415169" >
		</node>
		<node id="2041914104" x="178759.66219951288" y="4953023.193492899" >
		</node>
		<node id="2041914106" x="178887.733589858" y="4953019.123265406" >
		</node>
		<node id="2041914121" x="178820.49760442943" y="4953045.242933429" >
		</node>
		<node id="2041914129" x="178781.42597139685" y="4953060.428701859" >
		</node>
		<node id="2041914137" x="178716.05484106665" y="4953086.634868976" >
		</node>
		<node id="2041914141" x="178784.48372922785" y="4953084.808952132" >
		</node>
		<node id="2041914186" x="178738.28372969083" y="4953140.550712024" >
		</node>
		<node id="2041914189" x="178701.36027026834" y="4953150.8193391785" >
		</node>
		<node id="2041914193" x="178599.28088675917" y="4953170.525318724" >
		</node>
		<node id="2041914198" x="178605.2876609483" y="4953183.411081272" >
		</node>
		<node id="2041914207" x="178607.47371008148" y="4953643.34082008" >
		</node>
		<node id="2050269990" x="178748.17368208466" y="4952300.686649379" >
		</node>
		<node id="2050270045" x="178795.18793524947" y="4952386.687723595" >
		</node>
		<node id="2050270110" x="178891.4587174391" y="4952562.766091435" >
		</node>
		<node id="2050270130" x="179188.29410789342" y="4952917.088919893" >
		</node>
		<node id="2050270134" x="179166.78496895044" y="4952943.592766181" >
		</node>
		<node id="2050270139" x="179091.2757792255" y="4953004.274606097" >
		</node>
		<node id="2050270141" x="179072.70702349924" y="4953018.772861798" >
		</node>
		<node id="2289502130" x="178045.20613453293" y="4954003.257072132" >
		</node>
		<node id="2289502134" x="178030.38288435264" y="4954009.743228254" >
		</node>
		<node id="250854391" x="177580.84067307535" y="4952816.553483893" >
		</node>
		<node id="250854397" x="177664.29692935687" y="4952714.809036414" >
		</node>
		<node id="250854401" x="177662.8389174501" y="4952687.531538271" >
		</node>
		<node id="250854411" x="177670.3800324619" y="4952715.652182825" >
		</node>
		<node id="250854412" x="177683.47272301035" y="4952704.697255013" >
		</node>
		<node id="250854413" x="177683.23235783854" y="4952695.588774969" >
		</node>
		<node id="250857516" x="177633.32349564426" y="4952533.155863301" >
		</node>
		<node id="250857518" x="177562.24362395814" y="4952582.4544187" >
		</node>
		<node id="250857519" x="177482.4074304396" y="4952643.884478649" >
		</node>
		<node id="250857521" x="177414.84050983092" y="4952699.49056568" >
		</node>
		<node id="250857522" x="177262.11347021163" y="4952820.271412504" >
		</node>
		<node id="255384560" x="179142.79937466193" y="4952970.320078618" >
		</node>
		<node id="255384869" x="179104.11450613488" y="4953006.564783245" >
		</node>
		<node id="255384882" x="178580.40626029496" y="4953227.034176727" >
		</node>
		<node id="255384886" x="178989.78158490616" y="4953080.203594609" >
		</node>
		<node id="255384897" x="178537.52846160578" y="4953247.789897363" >
		</node>
		<node id="255384904" x="178444.222341467" y="4953311.449506037" >
		</node>
		<node id="255396463" x="177007.1469892779" y="4954323.997226293" >
		</node>
		<node id="255396465" x="177354.24860265548" y="4954016.480196066" >
		</node>
		<node id="255396511" x="177308.1713666676" y="4953609.796473711" >
		</node>
		<node id="255396512" x="177269.57660166145" y="4953269.1549465405" >
		</node>
		<node id="255396514" x="177255.00054233964" y="4953126.015387914" >
		</node>
		<node id="266699792" x="179019.68763255666" y="4952753.59195455" >
		</node>
		<node id="266699793" x="178782.4804900214" y="4952667.143905894" >
		</node>
		<node id="269761437" x="178551.82434012037" y="4952226.610152751" >
		</node>
		<node id="2740309586" x="178475.81050740974" y="4952553.897029364" >
		</node>
		<node id="282193678" x="177423.67439911328" y="4954158.847462323" >
		</node>
		<node id="282193752" x="176971.9222714351" y="4954363.25731798" >
		</node>
		<node id="282193760" x="177370.82920193643" y="4954136.011027427" >
		</node>
		<node id="282193762" x="177380.1533671745" y="4954156.870473237" >
		</node>
		<node id="282193763" x="177411.9201725591" y="4954163.600294795" >
		</node>
		<node id="282193768" x="176841.28824637388" y="4954080.213122382" >
		</node>
		<node id="282259048" x="179053.34584408696" y="4953044.9810184445" >
		</node>
		<node id="282259080" x="179038.0880708071" y="4952799.770337683" >
		</node>
		<node id="282259081" x="179031.66880834813" y="4952775.223202883" >
		</node>
		<node id="282259086" x="179029.1645852062" y="4952765.626136996" >
		</node>
		<node id="282259087" x="179037.15718495916" y="4952747.021373453" >
		</node>
		<node id="282259088" x="179059.9171894116" y="4952735.432675508" >
		</node>
		<node id="282504713" x="177780.56426233327" y="4953872.225847302" >
		</node>
		<node id="282504715" x="177795.16338614194" y="4953866.340540338" >
		</node>
		<node id="282504716" x="177806.7816334071" y="4953864.100910087" >
		</node>
		<node id="282504717" x="177847.65980842547" y="4953883.306892634" >
		</node>
		<node id="282504719" x="177838.57766896766" y="4953866.789039388" >
		</node>
		<node id="282504720" x="177836.35697860667" y="4953839.193264222" >
		</node>
		<node id="282504722" x="177846.57346194627" y="4953817.000967827" >
		</node>
		<node id="282504723" x="177883.2089907094" y="4953929.483653815" >
		</node>
		<node id="282504729" x="177844.5413157462" y="4953804.318187337" >
		</node>
		<node id="282504730" x="177858.1841219078" y="4953781.030500529" >
		</node>
		<node id="282504731" x="177862.98226822377" y="4953755.845964034" >
		</node>
		<node id="282504732" x="177865.35242459323" y="4953719.757928304" >
		</node>
		<node id="282504733" x="177868.74175459583" y="4953704.554907808" >
		</node>
		<node id="282504734" x="177881.93957005237" y="4953683.171531924" >
		</node>
		<node id="282504735" x="177898.82198709896" y="4953670.479691011" >
		</node>
		<node id="282504736" x="177886.27055202198" y="4953686.0288300095" >
		</node>
		<node id="282504737" x="177879.76553245285" y="4953704.728256702" >
		</node>
		<node id="282504738" x="177884.82818705938" y="4953721.123942003" >
		</node>
		<node id="282504739" x="177900.23392971413" y="4953731.702359739" >
		</node>
		<node id="282504740" x="177919.0585606268" y="4953732.443954709" >
		</node>
		<node id="282504741" x="177936.06562934333" y="4953727.184899961" >
		</node>
		<node id="282504742" x="177949.61747201963" y="4953625.336783713" >
		</node>
		<node id="282504745" x="177966.2588390757" y="4953619.750878511" >
		</node>
		<node id="282504747" x="178074.11464643583" y="4953693.968142303" >
		</node>
		<node id="282504751" x="177887.12204476347" y="4953535.325826286" >
		</node>
		<node id="282504757" x="177927.93289662973" y="4953572.253389801" >
		</node>
		<node id="282504758" x="178084.5908721045" y="4953708.969019523" >
		</node>
		<node id="282504759" x="178086.70569175098" y="4953728.095493818" >
		</node>
		<node id="282504760" x="178078.4041618661" y="4953745.681627712" >
		</node>
		<node id="282504761" x="177956.42159385077" y="4953847.262617552" >
		</node>
		<node id="282504762" x="177933.62104738073" y="4953879.415092157" >
		</node>
		<node id="282504763" x="177900.36174957396" y="4953907.100956635" >
		</node>
		<node id="282504764" x="177862.46617009537" y="4953902.7349394" >
		</node>
		<node id="282504767" x="177906.90305229026" y="4953918.734501103" >
		</node>
		<node id="282504768" x="177899.7783388447" y="4953945.070850795" >
		</node>
		<node id="282504769" x="177904.91041824163" y="4953976.864324325" >
		</node>
		<node id="282504770" x="178101.16072419554" y="4953758.967193042" >
		</node>
		<node id="282504771" x="178109.06197725143" y="4953740.844262704" >
		</node>
		<node id="282504772" x="178108.33436558337" y="4953726.581846586" >
		</node>
		<node id="282504773" x="178091.2629514914" y="4953705.072507491" >
		</node>
		<node id="282504774" x="177988.2825894985" y="4953818.778288496" >
		</node>
		<node id="282504782" x="177986.75605047675" y="4953824.177552677" >
		</node>
		<node id="282504783" x="177988.89400831208" y="4953836.120084549" >
		</node>
		<node id="282504784" x="178001.86803382286" y="4953840.182982279" >
		</node>
		<node id="282504785" x="178067.0531894178" y="4953787.039610388" >
		</node>
		<node id="282504786" x="178065.65141495655" y="4953774.080349231" >
		</node>
		<node id="282504787" x="178057.00242911378" y="4953768.142173416" >
		</node>
		<node id="282504788" x="178051.0189509887" y="4953768.31831528" >
		</node>
		<node id="282504793" x="178146.7092980037" y="4953549.2404891765" >
		</node>
		<node id="282504797" x="178154.87359667668" y="4953533.354023321" >
		</node>
		<node id="282504815" x="178157.17357449076" y="4953525.61107036" >
		</node>
		<node id="282504820" x="178167.24999428698" y="4953497.869547952" >
		</node>
		<node id="282504823" x="178190.18410312955" y="4953501.001679699" >
		</node>
		<node id="282504826" x="178199.69154470606" y="4953499.291302661" >
		</node>
		<node id="282504827" x="178212.11252714606" y="4953494.807497643" >
		</node>
		<node id="282504828" x="178089.11550976895" y="4953467.580307852" >
		</node>
		<node id="282504829" x="177937.17076170945" y="4953270.148631038" >
		</node>
		<node id="282504830" x="178397.40575602092" y="4953351.066546667" >
		</node>
		<node id="282504832" x="178369.69637990586" y="4953389.0965990815" >
		</node>
		<node id="282504833" x="178278.7080198594" y="4953467.766166728" >
		</node>
		<node id="282504834" x="178400.0247341034" y="4953375.702494206" >
		</node>
		<node id="282504836" x="178424.9786428581" y="4953374.547656293" >
		</node>
		<node id="282504837" x="178450.59313782642" y="4953387.602946735" >
		</node>
		<node id="282504838" x="178464.519623138" y="4953404.5482577775" >
		</node>
		<node id="282504839" x="178328.03275751887" y="4953426.51967324" >
		</node>
		<node id="282504840" x="178297.97742138733" y="4953434.544105641" >
		</node>
		<node id="282504841" x="178270.87398254412" y="4953475.462108292" >
		</node>
		<node id="282504842" x="178266.51073416683" y="4953492.194470135" >
		</node>
		<node id="282504844" x="178274.12562438176" y="4953513.251579203" >
		</node>
		<node id="282504845" x="178357.49235312868" y="4953612.648364583" >
		</node>
		<node id="282504846" x="178257.66545851278" y="4953501.923082914" >
		</node>
		<node id="282504847" x="178245.32052917645" y="4953501.079974343" >
		</node>
		<node id="282504848" x="178232.6325028992" y="4953508.973530303" >
		</node>
		<node id="282504849" x="178138.12218350812" y="4953598.066287913" >
		</node>
		<node id="282504851" x="178132.63292155316" y="4953611.335971502" >
		</node>
		<node id="282504854" x="178135.79875116237" y="4953626.044665009" >
		</node>
		<node id="282504856" x="178221.03896246152" y="4953727.128080828" >
		</node>
		<node id="282929871" x="177962.729291343" y="4953718.592947332" >
		</node>
		<node id="282929873" x="178144.27484633197" y="4953565.119487391" >
		</node>
		<node id="282929874" x="178687.24015782436" y="4953188.549626852" >
		</node>
		<node id="282929875" x="178685.57991958834" y="4953177.874970986" >