<routes xmlns:xsi="http://www.w3.org/2001/XMLSchema-instance" xsi:noNamespaceSchemaLocation="http://sumo.dlr.de/xsd/routes_file.xsd">
    <vType id="car" vClass="passenger" />
    <vType id="bicycle" vClass="bicycle" />
    <trip id="758_0" depart="21522.00" from="100" to="256" type="car" />
    <trip id="28_0" depart="22978.00" from="272" to="211" type="car" />
    <trip id="546_0" depart="23149.00" from="324" to="289" type="car" />
    <trip id="63_0" depart="23225.00" from="324" to="382" type="car" />
    <trip id="882_0" depart="23300.00" from="145" to="279" type="car" />
    <trip id="307_0" depart="23499.00" from="47" to="506" type="car" />
    <trip id="924_0" depart="23542.00" from="201" to="582" type="car" />
    <trip id="436_0" depart="23946.00" from="356" to="441" type="car" />
    <trip id="274_0" depart="24169.00" from="198" to="476" type="car" />
    <trip id="683_0" depart="24267.00" from="624" to="594" type="car" />
    <trip id="522_0" depart="24526.00" from="530" to="107" type="car" />
    <trip id="775_0" depart="24758.00" from="533" to="408" type="car" />
    <trip id="982_0" depart="24890.00" from="568" to="505" type="car" />
    <trip id="523_0" depart="24925.00" from="81" to="234" type="car" />
    <trip id="111_0" depart="24933.00" from="396" to="285" type="car" />
    <trip id="922_0" depart="25202.00" from="323" to="354" type="car" />
    <trip id="466_0" depart="25245.00" from="97" to="482" type="car" />
    <trip id="660_0" depart="25269.00" from="520" to="137" type="car" />
    <trip id="748_0" depart="25324.00" from="47" to="483" type="car" />
    <trip id="208_0" depart="25383.00" from="332" to="174" type="car" />
    <trip id="645_0" depart="25420.00" from="330" to="7" type="car" />
    <trip id="995_0" depart="25514.00" from="240" to="276" type="car" />
    <trip id="941_0" depart="25585.00" from="86" to="530" type="car" />
    <trip id="267_0" depart="25598.00" from="106" to="197" type="car" />
    <trip id="515_0" depart="25699.00" from="361" to="177" type="car" />
    <trip id="333_0" depart="25706.00" from="439" to="205" type="car" />
    <trip id="212_0" depart="25750.00" from="14" to="198" type="car" />
    <trip id="713_0" depart="25769.00" from="123" to="31" type="car" />
    <trip id="460_0" depart="25793.00" from="398" to="183" type="car" />
    <trip id="740_0" depart="25816.00" from="144" to="400" type="car" />
    <trip id="864_0" depart="25842.00" from="71" to="82" type="car" />
    <trip id="324_0" depart="25929.00" from="357" to="521" type="car" />
    <trip id="445_0" depart="25953.00" from="18" to="91" type="car" />
    <trip id="831_0" depart="25988.00" from="291" to="539" type="car" />
    <trip id="406_0" depart="26011.00" from="562" to="135" type="car" />
    <trip id="732_0" depart="26016.00" from="244" to="374" type="car" />
    <trip id="967_0" depart="26086.00" from="465" to="230" type="car" />
    <trip id="471_0" depart="26096.00" from="550" to="135" type="car" />
    <trip id="272_0" depart="26135.00" from="350" to="123" type="car" />
    <trip id="898_0" depart="26141.00" from="197" to="598" type="car" />
    <trip id="584_0" depart="26182.00" from="538" to="241" type="car" />
    <trip id="755_0" depart="26210.00" from="446" to="579" type="car" />
    <trip id="874_0" depart="26227.00" from="10" to="145" type="car" />
    <trip id="91_0" depart="26227.00" from="224" to="169" type="car" />
    <trip id="118_0" depart="26272.00" from="249" to="169" type="car" />
    <trip id="619_0" depart="26353.00" from="228" to="610" type="car" />
    <trip id="844_0" depart="26354.00" from="598" to="568" type="car" />
    <trip id="88_0" depart="26394.00" from="449" to="590" type="car" />
    <trip id="44_0" depart="26395.00" from="241" to="164" type="car" />
    <trip id="304_0" depart="26429.00" from="326" to="592" type="car" />
    <trip id="97_0" depart="26558.00" from="9" to="189" type="car" />
    <trip id="658_0" depart="26559.00" from="285" to="437" type="car" />
    <trip id="177_0" depart="26649.00" from="608" to="141" type="car" />
    <trip id="605_0" depart="26659.00" from="229" to="578" type="car" />
    <trip id="654_0" depart="26697.00" from="253" to="285" type="car" />
    <trip id="421_0" depart="26757.00" from="190" to="254" type="car" />
    <trip id="772_0" depart="26776.00" from="71" to="498" type="car" />
    <trip id="706_0" depart="26782.00" from="421" to="583" type="car" />
    <trip id="162_0" depart="26802.00" from="362" to="9" type="car" />
    <trip id="476_0" depart="26849.00" from="462" to="310" type="car" />
    <trip id="174_0" depart="26917.00" from="4" to="22" type="car" />
    <trip id="128_0" depart="26977.00" from="388" to="258" type="car" />
    <trip id="754_0" depart="26983.00" from="500" to="13" type="car" />
    <trip id="59_0" depart="26993.00" from="593" to="168" type="car" />
    <trip id="119_0" depart="27058.00" from="385" to="522" type="car" />
    <trip id="750_0" depart="27146.00" from="57" to="299" type="car" />
    <trip id="90_0" depart="27155.00" from="257" to="621" type="car" />
    <trip id="260_0" depart="27161.00" from="85" to="565" type="car" />
    <trip id="768_0" depart="27168.00" from="373" to="433" type="car" />
    <trip id="3_0" depart="27170.00" from="445" to="163" type="car" />
    <trip id="352_0" depart="27204.00" from="206" to="402" type="car" />
    <trip id="383_0" depart="27266.00" from="516" to="1" type="car" />
    <trip id="651_0" depart="27266.00" from="18" to="49" type="car" />
    <trip id="966_0" depart="27266.00" from="434" to="76" type="car" />
    <trip id="926_0" depart="27301.00" from="533" to="255" type="car" />
    <trip id="610_0" depart="27324.00" from="433" to="311" type="car" />
    <trip id="292_0" depart="27350.00" from="183" to="2" type="car" />
    <trip id="799_0" depart="27354.00" from="457" to="583" type="car" />
    <trip id="839_0" depart="27372.00" from="455" to="122" type="car" />
    <trip id="817_0" depart="27408.00" from="563" to="231" type="car" />
    <trip id="993_0" depart="27423.00" from="104" to="218" type="car" />
    <trip id="461_0" depart="27426.00" from="109" to="575" type="car" />
    <trip id="240_0" depart="27439.00" from="483" to="627" type="car" />
    <trip id="938_0" depart="27462.00" from="255" to="470" type="car" />
    <trip id="454_0" depart="27499.00" from="423" to="580" type="car" />
    <trip id="575_0" depart="27509.00" from="18" to="585" type="car" />
    <trip id="559_0" depart="27515.00" from="82" to="413" type="car" />
    <trip id="603_0" depart="27516.00" from="504" to="473" type="car" />
    <trip id="432_0" depart="27532.00" from="376" to="309" type="car" />
    <trip id="599_0" depart="27539.00" from="58" to="204" type="car" />
    <trip id="144_0" depart="27561.00" from="193" to="59" type="car" />
    <trip id="290_0" depart="27571.00" from="374" to="454" type="car" />
    <trip id="66_0" depart="27589.00" from="265" to="352" type="car" />
    <trip id="50_0" depart="27618.00" from="309" to="540" type="car" />
    <trip id="977_0" depart="27653.00" from="173" to="17" type="car" />
    <trip id="867_0" depart="27661.00" from="269" to="368" type="car" />
    <trip id="325_0" depart="27699.00" from="17" to="555" type="car" />
    <trip id="835_0" depart="27730.00" from="493" to="300" type="car" />
    <trip id="540_0" depart="27749.00" from="64" to="465" type="car" />
    <trip id="255_0" depart="27761.00" from="280" to="57" type="car" />
    <trip id="681_0" depart="27762.00" from="227" to="475" type="car" />
    <trip id="576_0" depart="27802.00" from="333" to="118" type="car" />
    <trip id="125_0" depart="27891.00" from="177" to="294" type="car" />
    <trip id="80_0" depart="27954.00" from="605" to="221" type="car" />
    <trip id="410_0" depart="27974.00" from="107" to="541" type="car" />
    <trip id="744_0" depart="28015.00" from="297" to="508" type="car" />
    <trip id="98_0" depart="28046.00" from="607" to="432" type="car" />
    <trip id="544_0" depart="28054.00" from="406" to="75" type="car" />
    <trip id="797_0" depart="28100.00" from="523" to="202" type="car" />
    <trip id="842_0" depart="28104.00" from="202" to="600" type="car" />
    <trip id="765_0" depart="28120.00" from="223" to="447" type="car" />
    <trip id="434_0" depart="28150.00" from="350" to="215" type="car" />
    <trip id="370_0" depart="28174.00" from="337" to="198" type="car" />
    <trip id="975_0" depart="28262.00" from="412" to="268" type="car" />
    <trip id="20_0" depart="28285.00" from="325" to="81" type="car" />
    <trip id="535_0" depart="28293.00" from="79" to="596" type="car" />
    <trip id="350_0" depart="28306.00" from="534" to="467" type="car" />
    <trip id="210_0" depart="28320.00" from="216" to="50" type="car" />
    <trip id="945_0" depart="28349.00" from="346" to="254" type="car" />
    <trip id="798_0" depart="28351.00" from="296" to="174" type="car" />
    <trip id="816_0" depart="28374.00" from="113" to="445" type="car" />
    <trip id="687_0" depart="28410.00" from="373" to="346" type="car" />
    <trip id="222_0" depart="28421.00" from="372" to="265" type="car" />
    <trip id="198_0" depart="28441.00" from="279" to="133" type="car" />
    <trip id="282_0" depart="28463.00" from="347" to="143" type="car" />
    <trip id="502_0" depart="28466.00" from="541" to="454" type="car" />
    <trip id="23_0" depart="28485.00" from="340" to="610" type="car" />
    <trip id="829_0" depart="28490.00" from="293" to="92" type="car" />
    <trip id="373_0" depart="28496.00" from="516" to="408" type="car" />
    <trip id="876_0" depart="28504.00" from="375" to="361" type="car" />
    <trip id="593_0" depart="28519.00" from="225" to="3" type="car" />
    <trip id="875_0" depart="28523.00" from="204" to="137" type="car" />
    <trip id="934_0" depart="28543.00" from="30" to="230" type="car" />
    <trip id="818_0" depart="28555.00" from="250" to="601" type="car" />
    <trip id="969_0" depart="28559.00" from="473" to="376" type="car" />
    <trip id="481_0" depart="28583.00" from="208" to="604" type="car" />
    <trip id="782_0" depart="28611.00" from="552" to="340" type="car" />
    <trip id="273_0" depart="28645.00" from="104" to="563" type="car" />
    <trip id="205_0" depart="28667.00" from="188" to="179" type="car" />
    <trip id="123_0" depart="28688.00" from="206" to="89" type="car" />
    <trip id="635_0" depart="28695.00" from="363" to="549" type="car" />
    <trip id="586_0" depart="28703.00" from="562" to="347" type="car" />
    <trip id="228_0" depart="28714.00" from="46" to="235" type="car" />
    <trip id="238_0" depart="28715.00" from="413" to="618" type="car" />
    <trip id="431_0" depart="28721.00" from="101" to="212" type="car" />
    <trip id="680_0" depart="28731.00" from="182" to="104" type="car" />
    <trip id="526_0" depart="28733.00" from="202" to="182" type="car" />
    <trip id="887_0" depart="28736.00" from="187" to="404" type="car" />
    <trip id="164_0" depart="28738.00" from="311" to="143" type="car" />
    <trip id="146_0" depart="28748.00" from="363" to="407" type="car" />
    <trip id="420_0" depart="28754.00" from="435" to="402" type="car" />
    <trip id="639_0" depart="28760.00" from="51" to="574" type="car" />
    <trip id="900_0" depart="28762.00" from="590" to="263" type="car" />
    <trip id="838_0" depart="28777.00" from="311" to="134" type="car" />
    <trip id="643_0" depart="28792.00" from="282" to="124" type="car" />
    <trip id="802_0" depart="28801.00" from="141" to="8" type="car" />
    <trip id="490_0" depart="28808.00" from="11" to="614" type="car" />
    <trip id="564_0" depart="28817.00" from="75" to="459" type="car" />
    <trip id="679_0" depart="28854.00" from="2" to="612" type="car" />
    <trip id="342_0" depart="28855.00" from="524" to="327" type="car" />
    <trip id="262_0" depart="28857.00" from="212" to="101" type="car" />
    <trip id="556_0" depart="28862.00" from="307" to="627" type="car" />
    <trip id="345_0" depart="28868.00" from="26" to="604" type="car" />
    <trip id="197_0" depart="28894.00" from="344" to="226" type="car" />
    <trip id="276_0" depart="28903.00" from="394" to="457" type="car" />
    <trip id="375_0" depart="28912.00" from="161" to="583" type="car" />
    <trip id="495_0" depart="28939.00" from="626" to="106" type="car" />
    <trip id="675_0" depart="28946.00" from="155" to="557" type="car" />
    <trip id="84_0" depart="28957.00" from="534" to="47" type="car" />
    <trip id="313_0" depart="28959.00" from="156" to="483" type="car" />
    <trip id="32_0" depart="28973.00" from="264" to="571" type="car" />
    <trip id="220_0" depart="28977.00" from="621" to="475" type="car" />
    <trip id="300_0" depart="28988.00" from="311" to="273" type="car" />
    <trip id="524_0" depart="29026.00" from="187" to="378" type="car" />
    <trip id="173_0" depart="29027.00" from="13" to="438" type="car" />
    <trip id="30_0" depart="29053.00" from="540" to="65" type="car" />
    <trip id="316_0" depart="29076.00" from="330" to="407" type="car" />
    <trip id="962_0" depart="29079.00" from="199" to="220" type="car" />
    <trip id="601_0" depart="29082.00" from="126" to="409" type="car" />
    <trip id="881_0" depart="29086.00" from="148" to="264" type="car" />
    <trip id="918_0" depart="29086.00" from="83" to="112" type="car" />
    <trip id="600_0" depart="29115.00" from="549" to="583" type="car" />
    <trip id="263_0" depart="29128.00" from="462" to="626" type="car" />
    <trip id="371_0" depart="29167.00" from="387" to="3" type="car" />
    <trip id="891_0" depart="29230.00" from="342" to="563" type="car" />
    <trip id="858_0" depart="29236.00" from="617" to="138" type="car" />
    <trip id="909_0" depart="29237.00" from="49" to="583" type="car" />
    <trip id="55_0" depart="29251.00" from="66" to="259" type="car" />
    <trip id="947_0" depart="29279.00" from="540" to="126" type="car" />
    <trip id="946_0" depart="29286.00" from="134" to="278" type="car" />
    <trip id="277_0" depart="29296.00" from="253" to="552" type="car" />
    <trip id="763_0" depart="29297.00" from="256" to="67" type="car" />
    <trip id="236_0" depart="29305.00" from="103" to="375" type="car" />
    <trip id="259_0" depart="29321.00" from="611" to="229" type="car" />
    <trip id="929_0" depart="29322.00" from="176" to="564" type="car" />
    <trip id="948_0" depart="29333.00" from="186" to="385" type="car" />
    <trip id="289_0" depart="29347.00" from="339" to="204" type="car" />
    <trip id="175_0" depart="29377.00" from="521" to="466" type="car" />
    <trip id="851_0" depart="29400.00" from="343" to="565" type="car" />
    <trip id="836_0" depart="29406.00" from="29" to="82" type="car" />
    <trip id="159_0" depart="29410.00" from="421" to="129" type="car" />
    <trip id="46_0" depart="29427.00" from="523" to="621" type="car" />
    <trip id="339_0" depart="29474.00" from="367" to="629" type="car" />
    <trip id="85_0" depart="29476.00" from="10" to="174" type="car" />
    <trip id="105_0" depart="29485.00" from="596" to="133" type="car" />
    <trip id="456_0" depart="29493.00" from="143" to="390" type="car" />
    <trip id="426_0" depart="29504.00" from="309" to="278" type="car" />
    <trip id="322_0" depart="29511.00" from="546" to="361" type="car" />
    <trip id="759_0" depart="29541.00" from="15" to="74" type="car" />
    <trip id="416_0" depart="29552.00" from="595" to="374" type="car" />
    <trip id="684_0" depart="29560.00" from="164" to="59" type="car" />
    <trip id="15_0" depart="29574.00" from="549" to="283" type="car" />
    <trip id="57_0" depart="29586.00" from="481" to="284" type="car" />
    <trip id="396_0" depart="29596.00" from="544" to="484" type="car" />
    <trip id="682_0" depart="29603.00" from="555" to="422" type="car" />
    <trip id="61_0" depart="29604.00" from="471" to="31" type="car" />
    <trip id="648_0" depart="29604.00" from="244" to="582" type="car" />
    <trip id="248_0" depart="29616.00" from="254" to="372" type="car" />
    <trip id="53_0" depart="29617.00" from="259" to="112" type="car" />
    <trip id="287_0" depart="29632.00" from="623" to="494" type="car" />
    <trip id="219_0" depart="29634.00" from="551" to="352" type="car" />
    <trip id="244_0" depart="29645.00" from="356" to="274" type="car" />
    <trip id="384_0" depart="29679.00" from="78" to="298" type="car" />
    <trip id="109_0" depart="29697.00" from="420" to="307" type="car" />
    <trip id="606_0" depart="29702.00" from="160" to="609" type="car" />
    <trip id="376_0" depart="29709.00" from="126" to="540" type="car" />
    <trip id="608_0" depart="29714.00" from="374" to="208" type="car" />
    <trip id="31_0" depart="29718.00" from="353" to="187" type="car" />
    <trip id="295_0" depart="29751.00" from="164" to="448" type="car" />
    <trip id="991_0" depart="29765.00" from="465" to="526" type="car" />
    <trip id="469_0" depart="29768.00" from="76" to="214" type="car" />
    <trip id="856_0" depart="29776.00" from="287" to="337" type="car" />
    <trip id="908_0" depart="29776.00" from="571" to="604" type="car" />
    <trip id="496_0" depart="29777.00" from="572" to="506" type="car" />
    <trip id="707_0" depart="29786.00" from="111" to="620" type="car" />
    <trip id="181_0" depart="29787.00" from="23" to="576" type="car" />
    <trip id="227_0" depart="29789.00" from="549" to="352" type="car" />
    <trip id="103_0" depart="29829.00" from="573" to="162" type="car" />
    <trip id="736_0" depart="29834.00" from="195" to="29" type="car" />
    <trip id="271_0" depart="29854.00" from="165" to="80" type="car" />
    <trip id="200_0" depart="29862.00" from="32" to="465" type="car" />
    <trip id="92_0" depart="29878.00" from="453" to="276" type="car" />
    <trip id="570_0" depart="29884.00" from="179" to="565" type="car" />
    <trip id="151_0" depart="29890.00" from="546" to="548" type="car" />
    <trip id="303_0" depart="29899.00" from="264" to="433" type="car" />
    <trip id="163_0" depart="29930.00" from="213" to="194" type="car" />
    <trip id="334_0" depart="29941.00" from="348" to="555" type="car" />
    <trip id="737_0" depart="29942.00" from="70" to="135" type="car" />
    <trip id="712_0" depart="29963.00" from="29" to="480" type="car" />
    <trip id="880_0" depart="29965.00" from="438" to="197" type="car" />
    <trip id="795_0" depart="29969.00" from="86" to="556" type="car" />
    <trip id="89_0" depart="30017.00" from="551" to="449" type="car" />
    <trip id="711_0" depart="30043.00" from="458" to="139" type="car" />
    <trip id="391_0" depart="30058.00" from="157" to="432" type="car" />
    <trip id="708_0" depart="30059.00" from="334" to="259" type="car" />
    <trip id="884_0" depart="30065.00" from="621" to="493" type="car" />
    <trip id="390_0" depart="30074.00" from="625" to="349" type="car" />
    <trip id="311_0" depart="30077.00" from="280" to="2" type="car" />
    <trip id="474_0" depart="30087.00" from="87" to="182" type="car" />
    <trip id="201_0" depart="30108.00" from="601" to="495" type="car" />
    <trip id="335_0" depart="30111.00" from="435" to="600" type="car" />
    <trip id="425_0" depart="30120.00" from="138" to="162" type="car" />
    <trip id="382_0" depart="30146.00" from="275" to="498" type="car" />
    <trip id="883_0" depart="30155.00" from="564" to="329" type="car" />
    <trip id="17_0" depart="30161.00" from="404" to="78" type="car" />
    <trip id="728_0" depart="30174.00" from="246" to="30" type="car" />
    <trip id="955_0" depart="30175.00" from="47" to="544" type="car" />
    <trip id="129_0" depart="30176.00" from="22" to="67" type="car" />
    <trip id="246_0" depart="30190.00" from="588" to="385" type="car" />
    <trip id="646_0" depart="30190.00" from="67" to="2" type="car" />
    <trip id="399_0" depart="30201.00" from="242" to="195" type="car" />
    <trip id="152_0" depart="30217.00" from="67" to="605" type="car" />
    <trip id="356_0" depart="30223.00" from="437" to="542" type="car" />
    <trip id="392_0" depart="30225.00" from="536" to="575" type="car" />
    <trip id="985_0" depart="30225.00" from="166" to="401" type="car" />
    <trip id="241_0" depart="30233.00" from="85" to="563" type="car" />
    <trip id="986_0" depart="30249.00" from="550" to="222" type="car" />
    <trip id="424_0" depart="30251.00" from="479" to="575" type="car" />
    <trip id="367_0" depart="30258.00" from="440" to="569" type="car" />
    <trip id="553_0" depart="30289.00" from="586" to="285" type="car" />
    <trip id="807_0" depart="30295.00" from="484" to="394" type="car" />
    <trip id="435_0" depart="30299.00" from="199" to="402" type="car" />
    <trip id="678_0" depart="30300.00" from="331" to="297" type="car" />
    <trip id="491_0" depart="30321.00" from="126" to="49" type="car" />
    <trip id="110_0" depart="30327.00" from="344" to="129" type="car" />
    <trip id="388_0" depart="30366.00" from="323" to="281" type="car" />
    <trip id="778_0" depart="30368.00" from="204" to="494" type="car" />
    <trip id="767_0" depart="30383.00" from="536" to="390" type="car" />
    <trip id="516_0" depart="30387.00" from="77" to="362" type="car" />
    <trip id="168_0" depart="30425.00" from="420" to="101" type="car" />
    <trip id="395_0" depart="30432.00" from="200" to="162" type="car" />
    <trip id="764_0" depart="30443.00" from="480" to="263" type="car" />
    <trip id="35_0" depart="30449.00" from="23" to="370" type="car" />
    <trip id="761_0" depart="30475.00" from="68" to="358" type="car" />
    <trip id="485_0" depart="30493.00" from="7" to="547" type="car" />
    <trip id="739_0" depart="30500.00" from="243" to="390" type="car" />
    <trip id="482_0" depart="30540.00" from="130" to="623" type="car" />
    <trip id="820_0" depart="30546.00" from="94" to="67" type="car" />
    <trip id="284_0" depart="30551.00" from="241" to="423" type="car" />
    <trip id="539_0" depart="30571.00" from="280" to="432" type="car" />
    <trip id="865_0" depart="30572.00" from="222" to="627" type="car" />
    <trip id="299_0" depart="30575.00" from="479" to="377" type="car" />
    <trip id="139_0" depart="30579.00" from="162" to="139" type="car" />
    <trip id="166_0" depart="30595.00" from="132" to="494" type="car" />
    <trip id="837_0" depart="30642.00" from="582" to="533" type="car" />
    <trip id="691_0" depart="30646.00" from="477" to="334" type="car" />
    <trip id="113_0" depart="30650.00" from="607" to="346" type="car" />
    <trip id="33_0" depart="30677.00" from="2" to="473" type="car" />
    <trip id="346_0" depart="30678.00" from="92" to="351" type="car" />
    <trip id="247_0" depart="30679.00" from="89" to="230" type="car" />
    <trip id="984_0" depart="30685.00" from="607" to="494" type="car" />
    <trip id="14_0" depart="30687.00" from="610" to="485" type="car" />
    <trip id="124_0" depart="30706.00" from="479" to="148" type="car" />
    <trip id="286_0" depart="30712.00" from="587" to="525" type="car" />
    <trip id="500_0" depart="30724.00" from="356" to="73" type="car" />
    <trip id="213_0" depart="30728.00" from="370" to="458" type="car" />
    <trip id="886_0" depart="30730.00" from="255" to="497" type="car" />
    <trip id="509_0" depart="30755.00" from="480" to="239" type="car" />
    <trip id="840_0" depart="30758.00" from="241" to="235" type="car" />
    <trip id="67_0" depart="30774.00" from="613" to="340" type="car" />
    <trip id="279_0" depart="30779.00" from="397" to="549" type="car" />
    <trip id="38_0" depart="30780.00" from="179" to="511" type="car" />
    <trip id="697_0" depart="30807.00" from="157" to="240" type="car" />
    <trip id="735_0" depart="30819.00" from="166" to="19" type="car" />
    <trip id="275_0" depart="30865.00" from="546" to="139" type="car" />
    <trip id="859_0" depart="30865.00" from="138" to="242" type="car" />
    <trip id="204_0" depart="30877.00" from="31" to="259" type="car" />
    <trip id="187_0" depart="30890.00" from="407" to="546" type="car" />
    <trip id="115_0" depart="30901.00" from="110" to="182" type="car" />
    <trip id="493_0" depart="30905.00" from="374" to="466" type="car" />
    <trip id="513_0" depart="30906.00" from="339" to="280" type="car" />
    <trip id="314_0" depart="30916.00" from="480" to="295" type="car" />
    <trip id="433_0" depart="30947.00" from="333" to="139" type="car" />
    <trip id="302_0" depart="30955.00" from="297" to="359" type="car" />
    <trip id="722_0" depart="30961.00" from="459" to="424" type="car" />
    <trip id="126_0" depart="30971.00" from="611" to="153" type="car" />
    <trip id="95_0" depart="30974.00" from="573" to="512" type="car" />
    <trip id="459_0" depart="30975.00" from="88" to="223" type="car" />
    <trip id="93_0" depart="30986.00" from="140" to="573" type="car" />
    <trip id="312_0" depart="30987.00" from="4" to="135" type="car" />
    <trip id="188_0" depart="30989.00" from="189" to="373" type="car" />
    <trip id="566_0" depart="30990.00" from="108" to="169" type="car" />
    <trip id="587_0" depart="30990.00" from="482" to="240" type="car" />
    <trip id="950_0" depart="30994.00" from="470" to="116" type="car" />
    <trip id="196_0" depart="31007.00" from="190" to="485" type="car" />
    <trip id="294_0" depart="31011.00" from="198" to="522" type="car" />
    <trip id="902_0" depart="31012.00" from="154" to="290" type="car" />
    <trip id="549_0" depart="31015.00" from="408" to="385" type="car" />
    <trip id="627_0" depart="31024.00" from="403" to="400" type="car" />
    <trip id="959_0" depart="31025.00" from="31" to="591" type="car" />
    <trip id="225_0" depart="31027.00" from="397" to="373" type="car" />
    <trip id="552_0" depart="31033.00" from="7" to="552" type="car" />
    <trip id="131_0" depart="31035.00" from="571" to="493" type="car" />
    <trip id="343_0" depart="31047.00" from="613" to="605" type="car" />
    <trip id="285_0" depart="31050.00" from="203" to="155" type="car" />
    <trip id="701_0" depart="31080.00" from="619" to="155" type="car" />
    <trip id="266_0" depart="31084.00" from="30" to="511" type="car" />
    <trip id="623_0" depart="31090.00" from="64" to="323" type="car" />
    <trip id="478_0" depart="31101.00" from="427" to="279" type="car" />
    <trip id="472_0" depart="31115.00" from="581" to="272" type="car" />
    <trip id="662_0" depart="31126.00" from="154" to="169" type="car" />
    <trip id="133_0" depart="31128.00" from="328" to="132" type="car" />
    <trip id="407_0" depart="31142.00" from="310" to="185" type="car" />
    <trip id="541_0" depart="31158.00" from="457" to="78" type="car" />
    <trip id="952_0" depart="31163.00" from="235" to="546" type="car" />
    <trip id="202_0" depart="31177.00" from="304" to="114" type="car" />
    <trip id="442_0" depart="31215.00" from="539" to="205" type="car" />
    <trip id="444_0" depart="31227.00" from="10" to="51" type="car" />
    <trip id="332_0" depart="31234.00" from="449" to="217" type="car" />
    <trip id="655_0" depart="31239.00" from="441" to="538" type="car" />
    <trip id="437_0" depart="31244.00" from="522" to="27" type="car" />
    <trip id="423_0" depart="31254.00" from="260" to="445" type="car" />
    <trip id="672_0" depart="31271.00" from="367" to="403" type="car" />
    <trip id="13_0" depart="31276.00" from="192" to="276" type="car" />
    <trip id="705_0" depart="31279.00" from="20" to="519" type="car" />
    <trip id="597_0" depart="31280.00" from="159" to="134" type="car" />
    <trip id="41_0" depart="31287.00" from="66" to="242" type="car" />
    <trip id="141_0" depart="31295.00" from="408" to="288" type="car" />
    <trip id="185_0" depart="31298.00" from="90" to="95" type="car" />
    <trip id="848_0" depart="31302.00" from="527" to="72" type="car" />
    <trip id="791_0" depart="31311.00" from="398" to="107" type="car" />
    <trip id="233_0" depart="31315.00" from="413" to="7" type="car" />
    <trip id="6_0" depart="31348.00" from="503" to="213" type="car" />
    <trip id="677_0" depart="31361.00" from="475" to="535" type="car" />
    <trip id="943_0" depart="31368.00" from="283" to="208" type="car" />
    <trip id="211_0" depart="31371.00" from="251" to="396" type="car" />
    <trip id="306_0" depart="31392.00" from="332" to="311" type="car" />
    <trip id="366_0" depart="31392.00" from="513" to="9" type="car" />
    <trip id="714_0" depart="31397.00" from="570" to="436" type="car" />
    <trip id="169_0" depart="31407.00" from="291" to="566" type="car" />
    <trip id="405_0" depart="31433.00" from="615" to="1" type="car" />
    <trip id="199_0" depart="31442.00" from="16" to="586" type="car" />
    <trip id="793_0" depart="31442.00" from="626" to="329" type="car" />
    <trip id="893_0" depart="31470.00" from="373" to="57" type="car" />
    <trip id="562_0" depart="31485.00" from="114" to="455" type="car" />
    <trip id="353_0" depart="31498.00" from="597" to="162" type="car" />
    <trip id="715_0" depart="31498.00" from="72" to="430" type="car" />
    <trip id="268_0" depart="31508.00" from="340" to="621" type="car" />
    <trip id="114_0" depart="31519.00" from="527" to="140" type="car" />
    <trip id="226_0" depart="31525.00" from="357" to="299" type="car" />
    <trip id="974_0" depart="31525.00" from="114" to="132" type="car" />
    <trip id="318_0" depart="31544.00" from="222" to="140" type="car" />
    <trip id="700_0" depart="31550.00" from="434" to="592" type="car" />
    <trip id="940_0" depart="31554.00" from="282" to="61" type="car" />
    <trip id="871_0" depart="31585.00" from="296" to="267" type="car" />
    <trip id="417_0" depart="31590.00" from="130" to="377" type="car" />
    <trip id="853_0" depart="31602.00" from="207" to="304" type="car" />
    <trip id="29_0" depart="31604.00" from="138" to="579" type="car" />
    <trip id="27_0" depart="31606.00" from="338" to="523" type="car" />
    <trip id="121_0" depart="31631.00" from="404" to="246" type="car" />