<?xml version="1.0" encoding="UTF-8"?>
<!DOCTYPE network SYSTEM "http://www.matsim.org/files/dtd/network_v2.dtd">
<network>

<!-- ====================================================================== -->

	<nodes>
		<node id="10564569751" x="655447.4618380292" y="4946910.780680364" >
		</node>
		<node id="10564569752" x="655477.9988066438" y="4946893.165364237" >
		</node>
		<node id="10564569753" x="655556.5247295178" y="4946861.267366487" >
		</node>
		<node id="10564569754" x="655570.5740214577" y="4946862.250320412" >
		</node>
		<node id="10564569755" x="655724.083939427" y="4946815.177317991" >
		</node>
		<node id="10564569756" x="655870.3880771073" y="4946755.819064042" >
		</node>
		<node id="10564569757" x="655975.6163195479" y="4946711.288296882" >
		</node>
		<node id="10564569758" x="656199.3571111856" y="4946975.298338682" >
		</node>
		<node id="10564569777" x="656055.8873807491" y="4946662.85524623" >
		</node>
		<node id="10564569778" x="656058.829944141" y="4946669.450611843" >
		</node>
		<node id="1076629757" x="653073.9501188544" y="4946781.283076504" >
		</node>
		<node id="1076629758" x="653075.4804044681" y="4946788.01019564" >
		</node>
		<node id="1076629761" x="653074.6041977264" y="4946794.858124647" >
		</node>
		<node id="1076629764" x="653057.4331699334" y="4946808.777731234" >
		</node>
		<node id="1076629766" x="653050.520982822" y="4946808.224968869" >
		</node>
		<node id="1076629767" x="653044.2111084724" y="4946805.352462102" >
		</node>
		<node id="1076629769" x="653036.7300509673" y="4946795.661330228" >
		</node>
		<node id="1076629770" x="653035.5667985491" y="4946788.842886963" >
		</node>
		<node id="1076629771" x="653036.8150689824" y="4946782.025997055" >
		</node>
		<node id="1076629776" x="653052.24359479" y="4946769.332093379" >
		</node>
		<node id="1076629777" x="653059.183259902" y="4946769.396473686" >
		</node>
		<node id="1076629780" x="653065.678115264" y="4946771.828800867" >
		</node>
		<node id="1076629789" x="653377.8277465325" y="4946481.699385386" >
		</node>
		<node id="1076629791" x="653380.1646864048" y="4946468.473149137" >
		</node>
		<node id="1076629793" x="653385.2158435544" y="4946464.22510086" >
		</node>
		<node id="1076629794" x="653395.7237077282" y="4946463.040808018" >
		</node>
		<node id="1076629795" x="653404.3692163124" y="4946469.1255932525" >
		</node>
		<node id="1076629797" x="653406.8906934977" y="4946477.532380593" >
		</node>
		<node id="1076629799" x="653400.7711208144" y="4946489.357299164" >
		</node>
		<node id="1076629800" x="653388.9231539959" y="4946491.85460969" >
		</node>
		<node id="1113595402" x="653097.322605063" y="4946327.881063081" >
		</node>
		<node id="1113595405" x="653107.9470389292" y="4946330.82249188" >
		</node>
		<node id="1113595406" x="653111.2003830452" y="4946329.454715037" >
		</node>
		<node id="1113595408" x="653095.2204300247" y="4946320.173447027" >
		</node>
		<node id="1113595409" x="653103.994015136" y="4946331.251197526" >
		</node>
		<node id="1113595412" x="653095.9426833483" y="4946324.847484617" >
		</node>
		<node id="1131728887" x="655200.5753179542" y="4948540.744108333" >
		</node>
		<node id="1131728902" x="654664.6560162173" y="4948460.4749761345" >
		</node>
		<node id="1131728912" x="655759.4844642568" y="4950264.4485324435" >
		</node>
		<node id="1131728913" x="654676.0637604025" y="4948458.025170668" >
		</node>
		<node id="1131728917" x="655698.5322726441" y="4949473.125243988" >
		</node>
		<node id="1131728960" x="655163.1831683901" y="4948352.553471534" >
		</node>
		<node id="1131728995" x="654624.5787171627" y="4948395.673181067" >
		</node>
		<node id="1131729013" x="654937.7237520963" y="4949487.484681199" >
		</node>
		<node id="1131729014" x="655402.5986363655" y="4949654.1646397775" >
		</node>
		<node id="1131729059" x="655325.18900517" y="4948789.773566848" >
		</node>
		<node id="1131729107" x="655143.0189809859" y="4949808.270704143" >
		</node>
		<node id="1131729116" x="656792.5925594436" y="4951349.160146761" >
		</node>
		<node id="1131729134" x="656618.034035696" y="4951141.2640869375" >
		</node>
		<node id="1131729155" x="655286.723140683" y="4948696.908253716" >
		</node>
		<node id="1131729182" x="654863.8632408949" y="4948322.260779859" >
		</node>
		<node id="1131729201" x="655304.4411312515" y="4948736.102166162" >
		</node>
		<node id="1131729203" x="655819.3904446053" y="4950393.646867552" >
		</node>
		<node id="1131729216" x="657544.6728651209" y="4951722.0244184" >
		</node>
		<node id="1131729217" x="654729.1551304751" y="4948921.8962520175" >
		</node>
		<node id="1131729224" x="655957.0506903662" y="4948854.299190615" >
		</node>
		<node id="1131729226" x="656743.7961684898" y="4951320.554202603" >
		</node>
		<node id="1131729237" x="655216.1896989212" y="4948573.462920898" >
		</node>
		<node id="1131729260" x="654698.1054472283" y="4948451.328751694" >
		</node>
		<node id="1131729278" x="655790.5052281296" y="4949411.512842727" >
		</node>
		<node id="1131729321" x="656488.779185475" y="4948517.78586862" >
		</node>
		<node id="1131729344" x="655163.4963797723" y="4948390.017163507" >
		</node>
		<node id="1131729363" x="654649.3863371268" y="4948448.338933687" >
		</node>
		<node id="1131729375" x="655476.518538021" y="4949605.384277788" >
		</node>
		<node id="1131729380" x="655507.7147275934" y="4948066.070831572" >
		</node>
		<node id="1131729385" x="655002.4438535387" y="4949730.247531397" >
		</node>
		<node id="1131729400" x="655353.5545621032" y="4948822.810679677" >
		</node>
		<node id="1131729423" x="655094.5816350598" y="4948276.526602296" >
		</node>
		<node id="1131729452" x="654416.1454136556" y="4948459.706566673" >
		</node>
		<node id="1131729483" x="656651.4687223006" y="4951178.999087664" >
		</node>
		<node id="1131729498" x="656550.2915401412" y="4951093.560379351" >
		</node>
		<node id="1131729516" x="655998.2974028054" y="4950645.271403423" >
		</node>
		<node id="1131729518" x="655303.5287651181" y="4948730.511801484" >
		</node>
		<node id="1131729533" x="654897.1379274514" y="4948310.855091164" >
		</node>
		<node id="1131729559" x="657447.8530379978" y="4951703.432762009" >
		</node>
		<node id="1131729567" x="654417.9497710874" y="4949036.494033925" >
		</node>
		<node id="1131729582" x="655830.7198772581" y="4948934.064073034" >
		</node>
		<node id="1131729584" x="656703.6251552945" y="4951278.542555945" >
		</node>
		<node id="1131729603" x="655242.4269292403" y="4948619.21897318" >
		</node>
		<node id="1131729631" x="654749.3639054205" y="4948417.523928699" >
		</node>
		<node id="1131729652" x="655998.0717517666" y="4949265.6550490605" >
		</node>
		<node id="1131729674" x="656408.7225468607" y="4948568.274153894" >
		</node>
		<node id="1131729687" x="655171.9385206772" y="4948443.003222612" >
		</node>
		<node id="1131729722" x="654656.6326385979" y="4948457.71533667" >
		</node>
		<node id="1131729749" x="654734.5717295615" y="4948614.808481432" >
		</node>
		<node id="1131729754" x="655566.5207084054" y="4949552.00181159" >
		</node>
		<node id="1131729791" x="654724.0078762899" y="4947670.074367071" >
		</node>
		<node id="1131729801" x="655480.926922402" y="4948931.443529597" >
		</node>
		<node id="1131729811" x="655101.0397965634" y="4948284.028457392" >
		</node>
		<node id="1131729829" x="656729.2266877487" y="4951308.75200838" >
		</node>
		<node id="1131729832" x="654600.2783601764" y="4948389.378448829" >
		</node>
		<node id="1131729857" x="655230.8274698246" y="4949320.938641711" >
		</node>
		<node id="1131729860" x="655279.1269222713" y="4949722.48229191" >
		</node>
		<node id="1131729904" x="655309.3507759931" y="4948766.407542661" >
		</node>
		<node id="1131729927" x="655020.7643492814" y="4948290.169987331" >
		</node>
		<node id="1131729956" x="657247.5753662866" y="4951594.123553745" >
		</node>
		<node id="1131729962" x="655597.3410840763" y="4949084.262437599" >
		</node>
		<node id="1131729963" x="656657.2886013084" y="4951188.754679801" >
		</node>
		<node id="1131729988" x="655262.4083485364" y="4948672.482678489" >
		</node>
		<node id="1131730012" x="654809.5224602236" y="4948358.536091049" >
		</node>
		<node id="1131730015" x="656376.7311679644" y="4950976.347696633" >
		</node>
		<node id="1131730025" x="656005.8122852276" y="4950652.5331541505" >
		</node>
		<node id="1131730029" x="655593.2018970493" y="4950123.082284147" >
		</node>
		<node id="1131730034" x="656136.7884037872" y="4949171.999706822" >
		</node>
		<node id="1131730076" x="656133.6194164315" y="4948738.69499562" >
		</node>
		<node id="122006257" x="655570.8319831501" y="4945977.724516418" >
		</node>
		<node id="122006261" x="655418.863467974" y="4946091.248595913" >
		</node>
		<node id="122006262" x="655232.2059395465" y="4946266.2173931375" >
		</node>
		<node id="122006263" x="655168.9331380217" y="4946342.299401883" >
		</node>
		<node id="122006264" x="655112.3460978782" y="4946415.886091533" >
		</node>
		<node id="122006267" x="654916.6137080065" y="4946752.350747004" >
		</node>
		<node id="122006271" x="654836.3216699527" y="4946844.799398501" >
		</node>
		<node id="122006274" x="654803.4244906832" y="4946871.930721295" >
		</node>
		<node id="122006276" x="654673.8872298155" y="4946943.59535894" >
		</node>
		<node id="122006279" x="654258.3595981927" y="4947058.075325138" >
		</node>
		<node id="122006281" x="654214.2375643657" y="4947075.738653791" >
		</node>
		<node id="122006284" x="654107.843981237" y="4947138.697223195" >
		</node>
		<node id="122006295" x="652872.171099401" y="4948040.788292405" >
		</node>
		<node id="122006296" x="652831.1612547338" y="4948080.229546321" >
		</node>
		<node id="122006299" x="652739.3282090058" y="4948195.835981578" >
		</node>
		<node id="122006302" x="652685.1557542002" y="4948249.993405991" >
		</node>
		<node id="122006305" x="652602.5024399261" y="4948303.900453972" >
		</node>
		<node id="122006307" x="652506.7587628063" y="4948339.927496587" >
		</node>
		<node id="122006309" x="652484.8322323218" y="4948345.544803743" >
		</node>
		<node id="122006312" x="652390.544530563" y="4948353.877563177" >
		</node>
		<node id="122006314" x="651925.4919455308" y="4948330.293157453" >
		</node>
		<node id="1234767915" x="652369.9703775756" y="4946913.973330022" >
		</node>
		<node id="1234767954" x="652356.291344488" y="4946903.0142943235" >
		</node>
		<node id="1328953493" x="656848.7432091545" y="4945555.381630266" >
		</node>
		<node id="1328953502" x="656807.7033497953" y="4945885.414129137" >
		</node>
		<node id="1328953535" x="656593.3683995717" y="4944931.103454844" >
		</node>
		<node id="1328953556" x="656161.594928524" y="4946143.655179305" >
		</node>
		<node id="1328953560" x="656861.4254303476" y="4945185.493027538" >
		</node>
		<node id="1328953567" x="656889.5100215033" y="4945822.134268691" >
		</node>
		<node id="1328953591" x="657006.3847835226" y="4946701.644872874" >
		</node>
		<node id="1328953662" x="656839.5239197979" y="4946132.365457025" >
		</node>
		<node id="1328953682" x="656645.7040754992" y="4945046.285499933" >
		</node>
		<node id="1328953705" x="656886.3528977216" y="4945834.8506239485" >
		</node>
		<node id="1328953708" x="656930.9294413682" y="4947203.997043584" >
		</node>
		<node id="1328953720" x="656992.4847184902" y="4946710.176625907" >
		</node>
		<node id="1328953741" x="656863.5301269295" y="4945204.705794743" >
		</node>
		<node id="1328953745" x="656993.5475463686" y="4947359.757592247" >
		</node>
		<node id="1328953748" x="656842.963189611" y="4945635.633805246" >
		</node>
		<node id="1328953759" x="656842.6832294203" y="4946150.603537437" >
		</node>
		<node id="1328953797" x="656814.6467572188" y="4945866.409794947" >
		</node>
		<node id="1328953809" x="655808.8587087438" y="4945715.819859802" >
		</node>
		<node id="1328953832" x="656830.1795971413" y="4945107.554588736" >
		</node>
		<node id="1328953844" x="656846.2302432859" y="4945663.177459404" >
		</node>
		<node id="1328953859" x="656950.6950487923" y="4946490.290517364" >
		</node>
		<node id="1328953864" x="656788.3719534598" y="4946823.580289669" >
		</node>
		<node id="1328953868" x="656867.2614124091" y="4945349.142583994" >
		</node>
		<node id="1328953903" x="656808.7063387457" y="4945873.8347428925" >
		</node>
		<node id="1328953907" x="656938.0137464462" y="4947221.6081433" >
		</node>
		<node id="1328953947" x="656724.9548969646" y="4944867.837936096" >
		</node>
		<node id="1328953961" x="656922.6103111925" y="4948273.70940963" >
		</node>
		<node id="1328953964" x="656853.0484532971" y="4945159.559283316" >
		</node>
		<node id="1328953973" x="656849.5198052542" y="4945676.061404294" >
		</node>
		<node id="1328953985" x="657010.2272072537" y="4946682.598720447" >
		</node>
		<node id="1328953992" x="656863.2772053877" y="4945403.452211094" >
		</node>
		<node id="1328958277" x="657085.5634287922" y="4947592.969966347" >
		</node>
		<node id="1359255735" x="653431.0120219165" y="4946347.722036421" >
		</node>
		<node id="1359262854" x="653385.5767365904" y="4946436.658831149" >
		</node>
		<node id="1359262856" x="653366.97431367" y="4946450.988280061" >
		</node>
		<node id="1419841622" x="652763.3789577485" y="4946539.874554799" >
		</node>
		<node id="1419841657" x="652898.5887583186" y="4946574.448778479" >
		</node>
		<node id="1419841705" x="653101.666643019" y="4946749.5080755465" >
		</node>
		<node id="1433699948" x="654771.881481757" y="4946614.062647724" >
		</node>
		<node id="1433699956" x="654779.0467901725" y="4946614.323217742" >
		</node>
		<node id="1433699957" x="654768.6974883545" y="4946614.842191964" >
		</node>
		<node id="1433699958" x="654782.9429626844" y="4946615.6058127" >
		</node>
		<node id="1433699959" x="654769.8202019606" y="4946616.3250892805" >
		</node>
		<node id="1433699960" x="654756.7998718421" y="4946621.048073484" >
		</node>
		<node id="1433699961" x="654797.5188890276" y="4946622.112477101" >
		</node>
		<node id="1433699963" x="654762.5393555395" y="4946622.874963485" >
		</node>
		<node id="1433699964" x="654747.0130863356" y="4946625.904104413" >
		</node>
		<node id="1433699966" x="654741.4878882179" y="4946627.716808643" >
		</node>
		<node id="1433699967" x="654759.6511015195" y="4946631.8418839825" >
		</node>
		<node id="1433699968" x="654738.7521158505" y="4946635.286959633" >
		</node>
		<node id="1433699969" x="654762.8829400716" y="4946643.967441814" >
		</node>
		<node id="1433699970" x="654742.9913408671" y="4946646.425212229" >
		</node>
		<node id="1433699971" x="654774.3574300631" y="4946650.455336276" >
		</node>
		<node id="1433699972" x="654831.6076220452" y="4946652.894089875" >
		</node>
		<node id="1433699973" x="654776.3349603069" y="4946655.993285514" >
		</node>
		<node id="1433699974" x="654754.6551640884" y="4946657.263383796" >
		</node>
		<node id="1433699975" x="654840.4985720763" y="4946668.867571461" >
		</node>
		<node id="1433699976" x="654745.9811885227" y="4946671.304434926" >
		</node>
		<node id="1433699977" x="654751.8243215521" y="4946684.037146137" >
		</node>
		<node id="1433699978" x="654932.8397832718" y="4946700.9461080795" >
		</node>
		<node id="1433699979" x="654764.151051152" y="4946700.315105629" >
		</node>
		<node id="1433699980" x="654908.0789647319" y="4946711.277948675" >
		</node>
		<node id="1433699981" x="654879.8519074537" y="4946711.3347556675" >
		</node>
		<node id="1433699982" x="654808.7260528157" y="4946716.565503828" >
		</node>
		<node id="1433699983" x="654779.3883792612" y="4946714.306543145" >
		</node>
		<node id="1433699984" x="654795.0283129693" y="4946719.438274546" >
		</node>
		<node id="1433699985" x="654840.0607154451" y="4946722.884805426" >
		</node>
		<node id="1433699986" x="654956.4625091203" y="4946729.799156781" >
		</node>
		<node id="1433699994" x="654860.6041392374" y="4946739.55996185" >
		</node>
		<node id="1433699995" x="654865.2015634044" y="4946739.7146235015" >
		</node>
		<node id="1433699996" x="654856.1831518719" y="4946739.98748825" >
		</node>
		<node id="1433699997" x="654848.4357474585" y="4946742.836057134" >
		</node>
		<node id="1433699998" x="654882.5561676652" y="4946744.1318874275" >
		</node>
		<node id="1433699999" x="654843.4081824766" y="4946745.071836433" >
		</node>
		<node id="1433700000" x="654838.2548637787" y="4946748.582776539" >
		</node>
		<node id="1433700001" x="654827.7594539543" y="4946759.179022866" >
		</node>
		<node id="1433700002" x="654958.9351692296" y="4946760.990291835" >
		</node>
		<node id="1433700003" x="654823.1835575791" y="4946781.298420328" >
		</node>
		<node id="1433700004" x="654968.5042013985" y="4946788.361530056" >
		</node>
		<node id="1433700007" x="654945.0234545486" y="4946800.568936946" >
		</node>
		<node id="1433700008" x="654836.9850702531" y="4946803.880478011" >
		</node>
		<node id="1433700009" x="654854.1811829826" y="4946809.938825996" >
		</node>
		<node id="1433700010" x="654997.2877720173" y="4946821.306446504" >
		</node>
		<node id="1433700011" x="654948.801327969" y="4946817.031264635" >
		</node>
		<node id="1433700012" x="654884.859903226" y="4946816.464937452" >
		</node>
		<node id="1433700013" x="654957.900070497" y="4946819.027827271" >
		</node>
		<node id="1433700014" x="654883.582114984" y="4946820.791200934" >
		</node>
		<node id="1433700015" x="654828.2921998651" y="4946824.667489011" >
		</node>
		<node id="1433700016" x="654974.831360239" y="4946831.159806625" >
		</node>
		<node id="1433700017" x="654957.0650730211" y="4946833.334443431" >
		</node>
		<node id="1433700018" x="654943.2651079518" y="4946838.160599367" >
		</node>
		<node id="1433700019" x="654882.7960173967" y="4946833.065031069" >
		</node>
		<node id="1433700020" x="655017.2491601013" y="4946844.025601744" >
		</node>
		<node id="1433700021" x="654884.4673809891" y="4946838.462307701" >
		</node>
		<node id="1433700022" x="654823.4540291631" y="4946841.512313271" >
		</node>
		<node id="1433700023" x="654934.2184749016" y="4946849.869533961" >
		</node>
		<node id="1433700024" x="654891.1113842234" y="4946848.213444824" >
		</node>
		<node id="1433700025" x="655050.4592506231" y="4946857.448704692" >
		</node>
		<node id="1433700026" x="654922.9051933088" y="4946855.866822515" >
		</node>
		<node id="1433700027" x="654906.7505368437" y="4946855.34606557" >
		</node>
		<node id="1433700028" x="655096.437476573" y="4946862.431353615" >
		</node>
		<node id="1433700029" x="654906.0542301424" y="4946859.241686741" >
		</node>
		<node id="1433700030" x="654858.2513163217" y="4946860.218507787" >
		</node>
		<node id="1433700031" x="654836.1558839848" y="4946866.279815999" >
		</node>
		<node id="1433716816" x="654089.0152445808" y="4946321.034574375" >
		</node>
		<node id="1433716822" x="654084.7813764783" y="4946337.227405113" >
		</node>
		<node id="1433716823" x="654114.786157241" y="4946360.816571976" >
		</node>
		<node id="1433716824" x="654264.7344648666" y="4946417.333146901" >
		</node>
		<node id="1433716825" x="654323.5322260495" y="4946443.411403783" >
		</node>
		<node id="1433716826" x="654293.2006143532" y="4946512.619310758" >
		</node>
		<node id="1433716827" x="654294.0732059107" y="4946537.536586208" >
		</node>
		<node id="1433716828" x="654242.0732560763" y="4946537.450880881" >
		</node>
		<node id="1433716829" x="654249.1133895435" y="4946553.590459035" >
		</node>
		<node id="1433716831" x="654196.9045741588" y="4946552.9555147765" >
		</node>
		<node id="1433716832" x="654543.2233662736" y="4946571.022016328" >
		</node>
		<node id="1433716833" x="654550.120251871" y="4946570.898016315" >
		</node>
		<node id="1433716834" x="654557.2582958277" y="4946577.937533013" >
		</node>
		<node id="1433716837" x="654561.2986201033" y="4946580.823928271" >
		</node>
		<node id="1433716840" x="654565.9188362667" y="4946583.3463061545" >
		</node>
		<node id="1433716844" x="654700.3701689463" y="4946600.235118822" >
		</node>
		<node id="1433716845" x="654590.1708256449" y="4946601.898703668" >
		</node>
		<node id="1433716846" x="654603.3658250258" y="4946610.094626446" >
		</node>
		<node id="1433716849" x="653905.2094980766" y="4946686.553773489" >
		</node>
		<node id="1433716850" x="654476.9283222842" y="4946954.776318347" >
		</node>
		<node id="1433716851" x="654471.6295010819" y="4946971.35471165" >
		</node>
		<node id="1433716852" x="654460.7863242263" y="4946983.26582107" >
		</node>
		<node id="1444329946" x="655872.6365377505" y="4947239.292660772" >
		</node>
		<node id="1444329952" x="655833.4327107233" y="4947244.948849153" >
		</node>
		<node id="1444864630" x="655229.4204347262" y="4946849.042416496" >
		</node>
		<node id="1444874088" x="655368.4069671242" y="4946854.884294936" >
		</node>
		<node id="1444874089" x="655380.1619970186" y="4946859.234947108" >
		</node>
		<node id="1444874156" x="655767.3487584069" y="4946921.842481715" >
		</node>
		<node id="1444874164" x="655766.3642673985" y="4946926.153442076" >
		</node>
		<node id="1444874182" x="655765.0826835365" y="4946930.612843681" >
		</node>
		<node id="1444874183" x="655763.8527934009" y="4946932.928371947" >
		</node>
		<node id="1444874186" x="655762.6911508298" y="4946935.045482961" >
		</node>
		<node id="1444874187" x="655761.4832244642" y="4946936.450143089" >
		</node>
		<node id="1444874188" x="655760.1258405269" y="4946937.4733030675" >
		</node>
		<node id="1444874189" x="655566.504616351" y="4946939.9878278775" >
		</node>
		<node id="1444874190" x="655551.9414571776" y="4946940.915325829" >
		</node>
		<node id="1444874192" x="655729.735038874" y="4946949.655796144" >
		</node>
		<node id="1444874194" x="655778.9232402947" y="4946951.430809479" >
		</node>
		<node id="1444874195" x="655727.994268975" y="4946950.458542893" >
		</node>
		<node id="1444874198" x="655726.5205432624" y="4946951.701197163" >
		</node>
		<node id="1444874199" x="655778.4503295813" y="4946954.264746574" >
		</node>
		<node id="1444874200" x="655725.756071236" y="4946953.138782586" >
		</node>
		<node id="1444874201" x="655538.4897283328" y="4946948.727319527" >
		</node>
		<node id="1444874202" x="655725.6211978375" y="4946955.113931643" >
		</node>
		<node id="1444874203" x="655777.0717304541" y="4946957.154646333" >
		</node>
		<node id="1444874204" x="655774.3602877026" y="4946958.734226364" >
		</node>
		<node id="1444874205" x="655519.2267994448" y="4946954.087603909" >
		</node>
		<node id="1444874209" x="655524.2218405391" y="4946953.207542625" >
		</node>
		<node id="1444874210" x="655566.2181847395" y="4946957.152979493" >
		</node>
		<node id="1444874211" x="655588.037584817" y="4946962.246552523" >
		</node>
		<node id="1444874213" x="655731.0196337911" y="4946970.7378325965" >
		</node>
		<node id="1444874214" x="655731.9827005123" y="4946972.250406743" >
		</node>
		<node id="1444874215" x="655733.4157764226" y="4946973.3519564755" >
		</node>
		<node id="1444874216" x="655736.9305277137" y="4946973.658980331" >
		</node>
		<node id="1444874219" x="655735.1804391819" y="4946973.861311343" >
		</node>
		<node id="1444874220" x="655571.0453430142" y="4946973.7855141265" >
		</node>
		<node id="1444874221" x="655581.33587919" y="4946975.689414422" >
		</node>
		<node id="1447327555" x="654372.5599406504" y="4947878.341981488" >
		</node>
		<node id="1450908791" x="655172.470712403" y="4946832.180569204" >
		</node>
		<node id="1450908792" x="655176.7394682011" y="4946839.740973103" >
		</node>
		<node id="1450908793" x="655181.6307787267" y="4946844.170913937" >
		</node>
		<node id="1450908798" x="655465.6316843234" y="4946946.2288633445" >
		</node>
		<node id="1450908799" x="655713.7890101129" y="4947291.945975042" >
		</node>
		<node id="1450908800" x="655629.3430712195" y="4947697.761475142" >
		</node>
		<node id="1450908801" x="655619.8333889825" y="4948002.873092557" >
		</node>
		<node id="1450910938" x="655168.1263721256" y="4946832.720867076" >
		</node>
		<node id="1450910943" x="655167.1580600287" y="4946839.677552956" >
		</node>
		<node id="1450910945" x="655165.9184670121" y="4946843.726823186" >
		</node>
		<node id="1450910947" x="655164.4860792964" y="4946847.215735052" >
		</node>
		<node id="1450910948" x="655159.523539464" y="4946850.375340692" >
		</node>
		<node id="1450910949" x="655196.1438856777" y="4946847.642738834" >
		</node>
		<node id="1450910952" x="655131.3390941685" y="4946858.590129467" >
		</node>
		<node id="1450910959" x="655064.3961590425" y="4946860.139499033" >
		</node>
		<node id="1461486066" x="655247.5843346925" y="4946832.306883821" >
		</node>
		<node id="1461486069" x="655249.3935151021" y="4946832.6171099525" >
		</node>
		<node id="1461486070" x="655244.6903357105" y="4946832.904212937" >
		</node>
		<node id="1461486072" x="655242.3810853465" y="4946833.92683381" >
		</node>
		<node id="1461486078" x="655239.5867144435" y="4946835.660244908" >
		</node>
		<node id="1461486079" x="655258.8952242228" y="4946836.657751037" >
		</node>
		<node id="1461486080" x="655260.5165766436" y="4946838.841828221" >
		</node>
		<node id="1461486081" x="655239.3081617965" y="4946838.9990355875" >
		</node>
		<node id="1461486082" x="655243.4038199505" y="4946839.5642660875" >
		</node>
		<node id="1461486084" x="655235.9320615318" y="4946839.851533278" >
		</node>
		<node id="1461486086" x="655260.4099022548" y="4946840.639824422" >
		</node>
		<node id="1461486089" x="655260.017461039" y="4946842.775504395" >
		</node>
		<node id="1461486091" x="655251.2312861807" y="4946842.63104023" >
		</node>
		<node id="1461486093" x="655254.2833665385" y="4946844.038135262" >
		</node>
		<node id="1461486099" x="655257.5312765148" y="4946846.539165673" >
		</node>
		<node id="1461486100" x="655256.8891091753" y="4946847.512929245" >
		</node>
		<node id="1461486116" x="655250.9090549791" y="4946855.0493820775" >
		</node>
		<node id="1467556647" x="655173.4086224162" y="4946378.595859478" >
		</node>
		<node id="1467556649" x="655172.1687927848" y="4946386.946455264" >
		</node>
		<node id="1467556659" x="655164.2365367818" y="4946404.405866178" >
		</node>
		<node id="1467556665" x="655156.756807278" y="4946408.63872266" >
		</node>
		<node id="1467559525" x="655177.0075484997" y="4946420.006195749" >
		</node>
		<node id="1476164942" x="653871.2757358496" y="4947184.973415314" >
		</node>
		<node id="1476164945" x="653871.5856646552" y="4947186.614623466" >
		</node>
		<node id="1476164946" x="653871.276375961" y="4947189.941593673" >
		</node>
		<node id="1476164947" x="653858.262006775" y="4947190.165090108" >
		</node>
		<node id="1476164948" x="653870.6730248623" y="4947191.29429993" >
		</node>
		<node id="1476164949" x="653859.9402902694" y="4947191.6388298245" >
		</node>
		<node id="1476164953" x="653861.7760812833" y="4947192.827345806" >
		</node>
		<node id="1476164955" x="653866.3490938519" y="4947193.992146471" >
		</node>
		<node id="1476164957" x="654082.7456912193" y="4947202.217917411" >
		</node>
		<node id="1476164959" x="654058.2824670282" y="4947206.535914522" >
		</node>
		<node id="1476164961" x="654106.6138437294" y="4947209.544902625" >
		</node>
		<node id="1476164963" x="654127.4565447927" y="4947226.313784618" >
		</node>
		<node id="1476164965" x="653931.0037755219" y="4947300.586462125" >
		</node>
		<node id="1476164966" x="653911.6069214593" y="4947317.007122048" >
		</node>
		<node id="1476164968" x="653900.3146381909" y="4947318.8720383085" >
		</node>
		<node id="1476164970" x="653930.737126898" y="4947320.097110309" >
		</node>
		<node id="1476164972" x="653927.7390002683" y="4947323.4155753665" >
		</node>
		<node id="1476164987" x="653788.1520487193" y="4947411.884962553" >
		</node>
		<node id="1476164995" x="653786.8550744746" y="4947426.047243297" >
		</node>
		<node id="1476165000" x="653524.4565820012" y="4947479.38952934" >
		</node>
		<node id="1476165001" x="653529.815093948" y="4947482.873458548" >
		</node>
		<node id="1476165002" x="653727.5261764663" y="4947504.5811900385" >
		</node>
		<node id="1476165003" x="653528.2394754689" y="4947502.108439235" >
		</node>
		<node id="1476165004" x="653750.4883188781" y="4947521.943917878" >
		</node>
		<node id="1476165006" x="653537.9286547779" y="4947516.609695154" >
		</node>
		<node id="1476165008" x="653733.3243668546" y="4947521.246386768" >
		</node>
		<node id="1476165015" x="653554.2312577792" y="4947523.510314369" >
		</node>
		<node id="1476165017" x="653754.2562150753" y="4947538.927584583" >
		</node>
		<node id="1476165018" x="653730.9670555356" y="4947538.306538127" >
		</node>
		<node id="1476165019" x="653750.1204814457" y="4947555.389673457" >
		</node>
		<node id="1476165020" x="653504.6765969534" y="4947556.387019002" >
		</node>
		<node id="1476165022" x="653705.2224642062" y="4947571.537336082" >
		</node>
		<node id="1476165023" x="653709.4376148585" y="4947581.396138584" >
		</node>
		<node id="1476165031" x="653479.1455625592" y="4947614.397808869" >
		</node>
		<node id="1476165033" x="653624.9862363248" y="4947626.456554665" >
		</node>
		<node id="1476165035" x="653632.1879393111" y="4947635.808390753" >
		</node>
		<node id="1476165036" x="653472.8800896883" y="4947635.066260581" >
		</node>
		<node id="1476165042" x="653525.3912300584" y="4947696.343348994" >
		</node>
		<node id="1476165044" x="653515.9343264659" y="4947696.107442417" >
		</node>
		<node id="1476167527" x="653524.1832852095" y="4947705.78413828" >
		</node>
		<node id="1476167533" x="653534.5944987703" y="4947715.923482102" >
		</node>
		<node id="1476167541" x="653573.1721846863" y="4947872.109496518" >
		</node>
		<node id="1476167543" x="653579.7928152818" y="4947872.200249185" >
		</node>
		<node id="1476167545" x="653582.1297018636" y="4947873.322809282" >
		</node>
		<node id="1476167547" x="653569.0224206161" y="4947874.511568762" >
		</node>
		<node id="1476167548" x="653584.7464179504" y="4947875.6857288005" >
		</node>