<?xml version="1.0" encoding="utf-8"?>
<!DOCTYPE population SYSTEM "http://www.matsim.org/files/dtd/population_v6.dtd">

<population>



<!-- ====================================================================== -->

	<person id="0">
		<attributes>
			<attribute name="drivelogic" class="java.lang.String" >org.matsim.contrib.smartcity.agent.CLASSDriverLogicBasic</attribute>
		</attributes>
		<plan selected="yes">
			<activity type="h" link="5563" max_dur="08:56:58" >
			</activity>
			<leg mode="car">
			</leg>
			<activity type="w" link="2420" start_time="09:01:02" end_time="19:18:44" >
			</activity>
			<leg mode="car">
			</leg>
			<activity type="h" link="5563" >
			</activity>
		</plan>

	</person>

<!-- ====================================================================== -->

	<person id="1">
		<attributes>
			<attribute name="drivelogic" class="java.lang.String" >org.matsim.contrib.smartcity.agent.CLASSDriverLogicBasic</attribute>
		</attributes>
		<plan selected="yes">
			<activity type="h" link="6060" max_dur="08:13:03" >
			</activity>
			<leg mode="car">
			</leg>
			<activity type="w" link="2975" start_time="08:19:23" end_time="16:27:09" >
			</activity>
			<leg mode="car">
			</leg>
			<activity type="h" link="6060" >
			</activity>
		</plan>

	</person>

<!-- ====================================================================== -->

	<person id="10">
		<attributes>
			<attribute name="drivelogic" class="java.lang.String" >org.matsim.contrib.smartcity.agent.CLASSDriverLogicBasic</attribute>
		</attributes>
		<plan selected="yes">
			<activity type="h" link="1195" max_dur="08:40:26" >
			</activity>
			<leg mode="car">
			</leg>
			<activity type="w" link="5495" start_time="08:55:14" end_time="18:17:27" >
			</activity>
			<leg mode="car">
			</leg>
			<activity type="h" link="1195" >
			</activity>
		</plan>

	</person>

<!-- ====================================================================== -->

	<person id="100">
		<attributes>
			<attribute name="drivelogic" class="java.lang.String" >org.matsim.contrib.smartcity.agent.CLASSDriverLogicBasic</attribute>
		</attributes>
		<plan selected="yes">
			<activity type="h" link="2794" max_dur="09:35:22" >
			</activity>
			<leg mode="car">
			</leg>
			<activity type="w" link="82" start_time="09:41:50" end_time="17:21:06" >
			</activity>
			<leg mode="car">
			</leg>
			<activity type="h" link="2794" >
			</activity>
		</plan>

	</person>

<!-- ====================================================================== -->

	<person id="1000">
		<attributes>
			<attribute name="drivelogic" class="java.lang.String" >org.matsim.contrib.smartcity.agent.CLASSDriverLogicBasic</attribute>
		</attributes>
		<plan selected="yes">
			<activity type="h" link="1826" max_dur="08:11:05" >
			</activity>
			<leg mode="car">
			</leg>
			<activity type="w" link="2490" start_time="08:16:07" end_time="18:17:20" >
			</activity>
			<leg mode="car">
			</leg>
			<activity type="h" link="1826" >
			</activity>
		</plan>

	</person>

<!-- ====================================================================== -->

	<person id="1001">
		<attributes>
			<attribute name="drivelogic" class="java.lang.String" >org.matsim.contrib.smartcity.agent.CLASSDriverLogicBasic</attribute>
		</attributes>
		<plan selected="yes">
			<activity type="h" link="2085" max_dur="08:57:05" >
			</activity>
			<leg mode="car">
			</leg>
			<activity type="w" link="5270" start_time="08:57:48" end_time="16:54:14" >
			</activity>
			<leg mode="car">
			</leg>
			<activity type="h" link="2085" >
			</activity>
		</plan>

	</person>

<!-- ====================================================================== -->

	<person id="1002">
		<attributes>
			<attribute name="drivelogic" class="java.lang.String" >org.matsim.contrib.smartcity.agent.CLASSDriverLogicBasic</attribute>
		</attributes>
		<plan selected="yes">
			<activity type="h" link="3443" max_dur="08:23:09" >
			</activity>
			<leg mode="car">
			</leg>
			<activity type="w" link="5553" start_time="08:31:03" end_time="19:54:50" >
			</activity>
			<leg mode="car">
			</leg>
			<activity type="h" link="3443" >
			</activity>
		</plan>

	</person>

<!-- ====================================================================== -->

	<person id="1003">
		<attributes>
			<attribute name="drivelogic" class="java.lang.String" >org.matsim.contrib.smartcity.agent.CLASSDriverLogicBasic</attribute>
		</attributes>
		<plan selected="yes">
			<activity type="h" link="4367" max_dur="10:09:26" >
			</activity>
			<leg mode="car">
			</leg>
			<activity type="w" link="4419" start_time="10:15:30" end_time="17:32:14" >
			</activity>
			<leg mode="car">
			</leg>
			<activity type="h" link="4367" >
			</activity>
		</plan>

	</person>

<!-- ====================================================================== -->

	<person id="1004">
		<attributes>
			<attribute name="drivelogic" class="java.lang.String" >org.matsim.contrib.smartcity.agent.CLASSDriverLogicBasic</attribute>
		</attributes>
		<plan selected="yes">
			<activity type="h" link="923" max_dur="08:56:17" >
			</activity>
			<leg mode="car">
			</leg>
			<activity type="w" link="4336" start_time="09:01:41" end_time="16:39:29" >
			</activity>
			<leg mode="car">
			</leg>
			<activity type="h" link="923" >
			</activity>
		</plan>

	</person>

<!-- ====================================================================== -->

	<person id="1005">
		<attributes>
			<attribute name="drivelogic" class="java.lang.String" >org.matsim.contrib.smartcity.agent.CLASSDriverLogicBasic</attribute>
		</attributes>
		<plan selected="yes">
			<activity type="h" link="918" max_dur="08:47:20" >
			</activity>
			<leg mode="car">
			</leg>
			<activity type="w" link="4055" start_time="08:54:06" end_time="17:01:51" >
			</activity>
			<leg mode="car">
			</leg>
			<activity type="h" link="918" >
			</activity>
		</plan>

	</person>

<!-- ====================================================================== -->

	<person id="1006">
		<attributes>
			<attribute name="drivelogic" class="java.lang.String" >org.matsim.contrib.smartcity.agent.CLASSDriverLogicBasic</attribute>
		</attributes>
		<plan selected="yes">
			<activity type="h" link="5966" max_dur="08:21:17" >
			</activity>
			<leg mode="car">
			</leg>
			<activity type="w" link="2262" start_time="08:30:19" end_time="18:00:34" >
			</activity>
			<leg mode="car">
			</leg>
			<activity type="h" link="5966" >
			</activity>
		</plan>

	</person>

<!-- ====================================================================== -->

	<person id="1007">
		<attributes>
			<attribute name="drivelogic" class="java.lang.String" >org.matsim.contrib.smartcity.agent.CLASSDriverLogicBasic</attribute>
		</attributes>
		<plan selected="yes">
			<activity type="h" link="408" max_dur="10:34:28" >
			</activity>
			<leg mode="car">
			</leg>
			<activity type="w" link="2984" start_time="10:35:59" end_time="17:35:08" >
			</activity>
			<leg mode="car">
			</leg>
			<activity type="h" link="408" >
			</activity>
		</plan>

	</person>

<!-- ====================================================================== -->

	<person id="1008">
		<attributes>
			<attribute name="drivelogic" class="java.lang.String" >org.matsim.contrib.smartcity.agent.CLASSDriverLogicBasic</attribute>
		</attributes>
		<plan selected="yes">
			<activity type="h" link="3928" max_dur="09:26:43" >
			</activity>
			<leg mode="car">
			</leg>
			<activity type="w" link="2192" start_time="09:31:21" end_time="18:09:31" >
			</activity>
			<leg mode="car">
			</leg>
			<activity type="h" link="3928" >
			</activity>
		</plan>

	</person>

<!-- ====================================================================== -->

	<person id="1009">
		<attributes>
			<attribute name="drivelogic" class="java.lang.String" >org.matsim.contrib.smartcity.agent.CLASSDriverLogicBasic</attribute>
		</attributes>
		<plan selected="yes">
			<activity type="h" link="2918" max_dur="09:03:42" >
			</activity>
			<leg mode="car">
			</leg>
			<activity type="w" link="2943" start_time="09:09:49" end_time="17:53:45" >
			</activity>
			<leg mode="car">
			</leg>
			<activity type="h" link="2918" >
			</activity>
		</plan>

	</person>

<!-- ====================================================================== -->

	<person id="101">
		<attributes>
			<attribute name="drivelogic" class="java.lang.String" >org.matsim.contrib.smartcity.agent.CLASSDriverLogicBasic</attribute>
		</attributes>
		<plan selected="yes">
			<activity type="h" link="5021" max_dur="08:44:39" >
			</activity>
			<leg mode="car">
			</leg>
			<activity type="w" link="6068" start_time="08:51:37" end_time="19:04:04" >
			</activity>
			<leg mode="car">
			</leg>
			<activity type="h" link="5021" >
			</activity>
		</plan>

	</person>

<!-- ====================================================================== -->

	<person id="1010">
		<attributes>
			<attribute name="drivelogic" class="java.lang.String" >org.matsim.contrib.smartcity.agent.CLASSDriverLogicBasic</attribute>
		</attributes>
		<plan selected="yes">
			<activity type="h" link="731" max_dur="08:35:18" >
			</activity>
			<leg mode="car">
			</leg>
			<activity type="w" link="5888" start_time="08:50:23" end_time="17:39:30" >
			</activity>
			<leg mode="car">
			</leg>
			<activity type="h" link="731" >
			</activity>
		</plan>

	</person>

<!-- ====================================================================== -->

	<person id="1011">
		<attributes>
			<attribute name="drivelogic" class="java.lang.String" >org.matsim.contrib.smartcity.agent.CLASSDriverLogicBasic</attribute>
		</attributes>
		<plan selected="yes">
			<activity type="h" link="821" max_dur="09:01:10" >
			</activity>
			<leg mode="car">
			</leg>
			<activity type="w" link="4126" start_time="09:05:54" end_time="18:10:21" >
			</activity>
			<leg mode="car">
			</leg>
			<activity type="h" link="821" >
			</activity>
		</plan>

	</person>

<!-- ====================================================================== -->

	<person id="1012">
		<attributes>
			<attribute name="drivelogic" class="java.lang.String" >org.matsim.contrib.smartcity.agent.CLASSDriverLogicBasic</attribute>
		</attributes>
		<plan selected="yes">
			<activity type="h" link="1217" max_dur="08:43:34" >
			</activity>
			<leg mode="car">
			</leg>
			<activity type="w" link="6264" start_time="08:50:19" end_time="18:04:14" >
			</activity>
			<leg mode="car">
			</leg>
			<activity type="h" link="1217" >
			</activity>
		</plan>

	</person>

<!-- ====================================================================== -->

	<person id="1013">
		<attributes>
			<attribute name="drivelogic" class="java.lang.String" >org.matsim.contrib.smartcity.agent.CLASSDriverLogicBasic</attribute>
		</attributes>
		<plan selected="yes">
			<activity type="h" link="1199" max_dur="05:59:13" >
			</activity>
			<leg mode="car">
			</leg>
			<activity type="w" link="6306" start_time="06:07:50" end_time="17:54:43" >
			</activity>
			<leg mode="car">
			</leg>
			<activity type="h" link="1199" >
			</activity>
		</plan>

	</person>

<!-- ====================================================================== -->

	<person id="1014">
		<attributes>
			<attribute name="drivelogic" class="java.lang.String" >org.matsim.contrib.smartcity.agent.CLASSDriverLogicBasic</attribute>
		</attributes>
		<plan selected="yes">
			<activity type="h" link="286" max_dur="07:14:10" >
			</activity>
			<leg mode="car">
			</leg>
			<activity type="w" link="705" start_time="07:26:41" end_time="19:28:59" >
			</activity>
			<leg mode="car">
			</leg>
			<activity type="h" link="286" >
			</activity>
		</plan>

	</person>

<!-- ====================================================================== -->

	<person id="1015">
		<attributes>
			<attribute name="drivelogic" class="java.lang.String" >org.matsim.contrib.smartcity.agent.CLASSDriverLogicBasic</attribute>
		</attributes>
		<plan selected="yes">
			<activity type="h" link="1443" max_dur="10:13:10" >
			</activity>
			<leg mode="car">
			</leg>
			<activity type="w" link="1115" start_time="10:17:34" end_time="19:10:17" >
			</activity>
			<leg mode="car">
			</leg>
			<activity type="h" link="1443" >
			</activity>
		</plan>

	</person>

<!-- ====================================================================== -->

	<person id="1016">
		<attributes>
			<attribute name="drivelogic" class="java.lang.String" >org.matsim.contrib.smartcity.agent.CLASSDriverLogicBasic</attribute>
		</attributes>
		<plan selected="yes">
			<activity type="h" link="4632" max_dur="07:23:42" >
			</activity>
			<leg mode="car">
			</leg>
			<activity type="w" link="1662" start_time="07:46:42" end_time="17:59:25" >
			</activity>
			<leg mode="car">
			</leg>
			<activity type="h" link="4632" >
			</activity>
		</plan>

	</person>

<!-- ====================================================================== -->

	<person id="1017">
		<attributes>
			<attribute name="drivelogic" class="java.lang.String" >org.matsim.contrib.smartcity.agent.CLASSDriverLogicBasic</attribute>
		</attributes>
		<plan selected="yes">
			<activity type="h" link="3671" max_dur="08:13:31" >
			</activity>
			<leg mode="car">
			</leg>
			<activity type="w" link="1220" start_time="08:21:01" end_time="17:37:25" >
			</activity>
			<leg mode="car">
			</leg>
			<activity type="h" link="3671" >
			</activity>
		</plan>

	</person>

<!-- ====================================================================== -->

	<person id="1018">
		<attributes>
			<attribute name="drivelogic" class="java.lang.String" >org.matsim.contrib.smartcity.agent.CLASSDriverLogicBasic</attribute>
		</attributes>
		<plan selected="yes">
			<activity type="h" link="573" max_dur="09:33:40" >
			</activity>
			<leg mode="car">
			</leg>
			<activity type="w" link="1506" start_time="09:35:46" end_time="19:01:57" >
			</activity>
			<leg mode="car">
			</leg>
			<activity type="h" link="573" >
			</activity>
		</plan>

	</person>

<!-- ====================================================================== -->

	<person id="1019">
		<attributes>
			<attribute name="drivelogic" class="java.lang.String" >org.matsim.contrib.smartcity.agent.CLASSDriverLogicBasic</attribute>
		</attributes>
		<plan selected="yes">
			<activity type="h" link="5722" max_dur="09:17:37" >
			</activity>
			<leg mode="car">
			</leg>
			<activity type="w" link="3863" start_time="09:24:53" end_time="16:36:38" >
			</activity>
			<leg mode="car">
			</leg>
			<activity type="h" link="5722" >
			</activity>
		</plan>

	</person>

<!-- ====================================================================== -->

	<person id="102">
		<attributes>
			<attribute name="drivelogic" class="java.lang.String" >org.matsim.contrib.smartcity.agent.CLASSDriverLogicBasic</attribute>
		</attributes>
		<plan selected="yes">
			<activity type="h" link="4607" max_dur="09:25:43" >
			</activity>
			<leg mode="car">
			</leg>
			<activity type="w" link="5649" start_time="09:38:12" end_time="19:25:13" >
			</activity>
			<leg mode="car">
			</leg>
			<activity type="h" link="4607" >
			</activity>
		</plan>

	</person>

<!-- ====================================================================== -->

	<person id="1020">
		<attributes>
			<attribute name="drivelogic" class="java.lang.String" >org.matsim.contrib.smartcity.agent.CLASSDriverLogicBasic</attribute>
		</attributes>
		<plan selected="yes">
			<activity type="h" link="223" max_dur="08:50:13" >
			</activity>
			<leg mode="car">
			</leg>
			<activity type="w" link="4913" start_time="09:08:05" end_time="16:50:02" >
			</activity>
			<leg mode="car">
			</leg>
			<activity type="h" link="223" >
			</activity>
		</plan>

	</person>

<!-- ====================================================================== -->

	<person id="1021">
		<attributes>
			<attribute name="drivelogic" class="java.lang.String" >org.matsim.contrib.smartcity.agent.CLASSDriverLogicBasic</attribute>
		</attributes>
		<plan selected="yes">
			<activity type="h" link="1255" max_dur="08:09:57" >
			</activity>
			<leg mode="car">
			</leg>
			<activity type="w" link="1552" start_time="08:29:31" end_time="17:18:58" >
			</activity>
			<leg mode="car">
			</leg>
			<activity type="h" link="1255" >
			</activity>
		</plan>

	</person>

<!-- ====================================================================== -->

	<person id="1022">
		<attributes>
			<attribute name="drivelogic" class="java.lang.String" >org.matsim.contrib.smartcity.agent.CLASSDriverLogicBasic</attribute>
		</attributes>
		<plan selected="yes">
			<activity type="h" link="5698" max_dur="09:01:20" >
			</activity>
			<leg mode="car">
			</leg>
			<activity type="w" link="1711" start_time="09:27:47" end_time="18:03:15" >
			</activity>
			<leg mode="car">
			</leg>
			<activity type="h" link="5698" >
			</activity>
		</plan>

	</person>

<!-- ====================================================================== -->

	<person id="1023">
		<attributes>
			<attribute name="drivelogic" class="java.lang.String" >org.matsim.contrib.smartcity.agent.CLASSDriverLogicBasic</attribute>
		</attributes>
		<plan selected="yes">
			<activity type="h" link="617" max_dur="09:47:29" >
			</activity>
			<leg mode="car">
			</leg>
			<activity type="w" link="3720" start_time="09:57:11" end_time="18:18:57" >
			</activity>
			<leg mode="car">
			</leg>
			<activity type="h" link="617" >
			</activity>
		</plan>

	</person>

<!-- ====================================================================== -->

	<person id="1024">
		<attributes>
			<attribute name="drivelogic" class="java.lang.String" >org.matsim.contrib.smartcity.agent.CLASSDriverLogicBasic</attribute>
		</attributes>
		<plan selected="yes">
			<activity type="h" link="834" max_dur="08:43:02" >
			</activity>
			<leg mode="car">
			</leg>
			<activity type="w" link="4600" start_time="08:46:08" end_time="18:49:54" >
			</activity>
			<leg mode="car">
			</leg>
			<activity type="h" link="834" >
			</activity>
		</plan>

	</person>

<!-- ====================================================================== -->

	<person id="1025">
		<attributes>
			<attribute name="drivelogic" class="java.lang.String" >org.matsim.contrib.smartcity.agent.CLASSDriverLogicBasic</attribute>
		</attributes>
		<plan selected="yes">
			<activity type="h" link="2758" max_dur="08:31:13" >
			</activity>
			<leg mode="car">
			</leg>
			<activity type="w" link="358" start_time="08:37:53" end_time="19:29:33" >
			</activity>
			<leg mode="car">
			</leg>
			<activity type="h" link="2758" >
			</activity>
		</plan>

	</person>

<!-- ====================================================================== -->

	<person id="1026">
		<attributes>
			<attribute name="drivelogic" class="java.lang.String" >org.matsim.contrib.smartcity.agent.CLASSDriverLogicBasic</attribute>
		</attributes>
		<plan selected="yes">
			<activity type="h" link="712" max_dur="09:04:07" >
			</activity>
			<leg mode="car">
			</leg>
			<activity type="w" link="3873" start_time="09:09:34" end_time="16:39:43" >
			</activity>
			<leg mode="car">
			</leg>
			<activity type="h" link="712" >
			</activity>
		</plan>

	</person>

<!-- ====================================================================== -->

	<person id="1027">
		<attributes>
			<attribute name="drivelogic" class="java.lang.String" >org.matsim.contrib.smartcity.agent.CLASSDriverLogicBasic</attribute>
		</attributes>
		<plan selected="yes">
			<activity type="h" link="1856" max_dur="09:02:40" >
			</activity>
			<leg mode="car">
			</leg>
			<activity type="w" link="191" start_time="09:11:33" end_time="17:26:31" >
			</activity>
			<leg mode="car">
			</leg>
			<activity type="h" link="1856" >
			</activity>
		</plan>

	</person>

<!-- ====================================================================== -->

	<person id="1028">
		<attributes>
			<attribute name="drivelogic" class="java.lang.String" >org.matsim.contrib.smartcity.agent.CLASSDriverLogicBasic</attribute>
		</attributes>
		<plan selected="yes">
			<activity type="h" link="5851" max_dur="08:39:57" >
			</activity>
			<leg mode="car">
			</leg>
			<activity type="w" link="227" start_time="08:50:26" end_time="18:35:43" >
			</activity>
			<leg mode="car">
			</leg>
			<activity type="h" link="5851" >
			</activity>
		</plan>

	</person>

<!-- ====================================================================== -->

	<person id="1029">
		<attributes>
			<attribute name="drivelogic" class="java.lang.String" >org.matsim.contrib.smartcity.agent.CLASSDriverLogicBasic</attribute>
		</attributes>
		<plan selected="yes">
			<activity type="h" link="1513" max_dur="10:05:43" >
			</activity>
			<leg mode="car">
			</leg>
			<activity type="w" link="1686" start_time="10:29:33" end_time="19:24:51" >
			</activity>
			<leg mode="car">
			</leg>
			<activity type="h" link="1513" >
			</activity>
		</plan>

	</person>

<!-- ====================================================================== -->

	<person id="103">
		<attributes>
			<attribute name="drivelogic" class="java.lang.String" >org.matsim.contrib.smartcity.agent.CLASSDriverLogicBasic</attribute>
		</attributes>
		<plan selected="yes">
			<activity type="h" link="4578" max_dur="08:38:03" >
			</activity>
			<leg mode="car">
			</leg>
			<activity type="w" link="543" start_time="08:40:15" end_time="17:48:50" >
			</activity>
			<leg mode="car">
			</leg>
			<activity type="h" link="4578" >
			</activity>
		</plan>

	</person>

<!-- ====================================================================== -->

	<person id="1030">
		<attributes>
			<attribute name="drivelogic" class="java.lang.String" >org.matsim.contrib.smartcity.agent.CLASSDriverLogicBasic</attribute>
		</attributes>
		<plan selected="yes">
			<activity type="h" link="135" max_dur="07:59:19" >
			</activity>
			<leg mode="car">
			</leg>
			<activity type="w" link="5310" start_time="08:03:41" end_time="16:39:01" >
			</activity>
			<leg mode="car">
			</leg>
			<activity type="h" link="135" >
			</activity>
		</plan>

	</person>

<!-- ====================================================================== -->

	<person id="1031">
		<attributes>
			<attribute name="drivelogic" class="java.lang.String" >org.matsim.contrib.smartcity.agent.CLASSDriverLogicBasic</attribute>
		</attributes>
		<plan selected="yes">
			<activity type="h" link="2487" max_dur="08:43:33" >
			</activity>
			<leg mode="car">
			</leg>
			<activity type="w" link="1527" start_time="08:50:23" end_time="19:22:50" >
			</activity>
			<leg mode="car">
			</leg>
			<activity type="h" link="2487" >
			</activity>
		</plan>

	</person>

<!-- ====================================================================== -->

	<person id="1032">
		<attributes>
			<attribute name="drivelogic" class="java.lang.String" >org.matsim.contrib.smartcity.agent.CLASSDriverLogicBasic</attribute>
		</attributes>
		<plan selected="yes">
			<activity type="h" link="1993" max_dur="09:29:08" >
			</activity>
			<leg mode="car">
			</leg>
			<activity type="w" link="965" start_time="09:43:39" end_time="16:35:10" >
			</activity>
			<leg mode="car">
			</leg>
			<activity type="h" link="1993" >
			</activity>
		</plan>

	</person>

<!-- ====================================================================== -->

	<person id="1033">
		<attributes>
			<attribute name="drivelogic" class="java.lang.String" >org.matsim.contrib.smartcity.agent.CLASSDriverLogicBasic</attribute>
		</attributes>
		<plan selected="yes">
			<activity type="h" link="6001" max_dur="07:12:43" >
			</activity>
			<leg mode="car">
			</leg>
			<activity type="w" link="1217" start_time="07:20:13" end_time="18:01:51" >
			</activity>
			<leg mode="car">
			</leg>
			<activity type="h" link="6001" >
			</activity>
		</plan>

	</person>

<!-- ====================================================================== -->

	<person id="1034">
		<attributes>
			<attribute name="drivelogic" class="java.lang.String" >org.matsim.contrib.smartcity.agent.CLASSDriverLogicBasic</attribute>
		</attributes>
		<plan selected="yes">
			<activity type="h" link="3593" max_dur="08:41:00" >
			</activity>
			<leg mode="car">
			</leg>
			<activity type="w" link="3879" start_time="08:48:22" end_time="20:04:01" >
			</activity>
			<leg mode="car">
			</leg>
			<activity type="h" link="3593" >
			</activity>
		</plan>

	</person>

<!-- ====================================================================== -->

	<person id="1035">
		<attributes>
			<attribute name="drivelogic" class="java.lang.String" >org.matsim.contrib.smartcity.agent.CLASSDriverLogicBasic</attribute>
		</attributes>
		<plan selected="yes">
			<activity type="h" link="3451" max_dur="09:29:29" >
			</activity>
			<leg mode="car">
			</leg>
			<activity type="w" link="5492" start_time="09:39:40" end_time="18:11:44" >
			</activity>
			<leg mode="car">
			</leg>
			<activity type="h" link="3451" >
			</activity>
		</plan>

	</person>

<!-- ====================================================================== -->

	<person id="1036">
		<attributes>
			<attribute name="drivelogic" class="java.lang.String" >org.matsim.contrib.smartcity.agent.CLASSDriverLogicBasic</attribute>
		</attributes>
		<plan selected="yes">
			<activity type="h" link="5208" max_dur="09:21:44" >
			</activity>
			<leg mode="car">
			</leg>
			<activity type="w" link="191" start_time="09:29:40" end_time="18:08:33" >
			</activity>
			<leg mode="car">
			</leg>
			<activity type="h" link="5208" >
			</activity>
		</plan>

	</person>

<!-- ====================================================================== -->

	<person id="1037">
		<attributes>
			<attribute name="drivelogic" class="java.lang.String" >org.matsim.contrib.smartcity.agent.CLASSDriverLogicBasic</attribute>
		</attributes>
		<plan selected="yes">
			<activity type="h" link="2075" max_dur="09:23:18" >
			</activity>
			<leg mode="car">
			</leg>
			<activity type="w" link="1038" start_time="09:30:06" end_time="18:46:57" >
			</activity>
			<leg mode="car">
			</leg>
			<activity type="h" link="2075" >
			</activity>
		</plan>

	</person>

<!-- ====================================================================== -->

	<person id="1038">
		<attributes>
			<attribute name="drivelogic" class="java.lang.String" >org.matsim.contrib.smartcity.agent.CLASSDriverLogicBasic</attribute>
		</attributes>
		<plan selected="yes">
			<activity type="h" link="5814" max_dur="06:55:44" >
			</activity>
			<leg mode="car">
			</leg>
			<activity type="w" link="5525" start_time="07:11:06" end_time="18:35:38" >
			</activity>
			<leg mode="car">
			</leg>
			<activity type="h" link="5814" >
			</activity>
		</plan>

	</person>

<!-- ====================================================================== -->

	<person id="1039">
		<attributes>
			<attribute name="drivelogic" class="java.lang.String" >org.matsim.contrib.smartcity.agent.CLASSDriverLogicBasic</attribute>
		</attributes>
		<plan selected="yes">
			<activity type="h" link="3035" max_dur="08:06:30" >
			</activity>
			<leg mode="car">
			</leg>
			<activity type="w" link="2474" start_time="08:16:15" end_time="19:35:10" >
			</activity>
			<leg mode="car">
			</leg>
			<activity type="h" link="3035" >
			</activity>
		</plan>

	</person>

<!-- ====================================================================== -->

	<person id="104">
		<attributes>
			<attribute name="drivelogic" class="java.lang.String" >org.matsim.contrib.smartcity.agent.CLASSDriverLogicBasic</attribute>
		</attributes>
		<plan selected="yes">
			<activity type="h" link="5634" max_dur="07:55:05" >
			</activity>
			<leg mode="car">
			</leg>
			<activity type="w" link="5450" start_time="08:04:14" end_time="19:28:35" >
			</activity>
			<leg mode="car">
			</leg>
			<activity type="h" link="5634" >
			</activity>
		</plan>

	</person>

<!-- ====================================================================== -->

	<person id="1040">
		<attributes>
			<attribute name="drivelogic" class="java.lang.String" >org.matsim.contrib.smartcity.agent.CLASSDriverLogicBasic</attribute>
		</attributes>
		<plan selected="yes">
			<activity type="h" link="4207" max_dur="09:32:18" >
			</activity>
			<leg mode="car">
			</leg>
			<activity type="w" link="4204" start_time="09:39:47" end_time="17:35:49" >
			</activity>
			<leg mode="car">
			</leg>
			<activity type="h" link="4207" >
			</activity>
		</plan>

	</person>

<!-- ====================================================================== -->

	<person id="1041">
		<attributes>
			<attribute name="drivelogic" class="java.lang.String" >org.matsim.contrib.smartcity.agent.CLASSDriverLogicBasic</attribute>
		</attributes>
		<plan selected="yes">
			<activity type="h" link="5050" max_dur="09:54:04" >
			</activity>
			<leg mode="car">
			</leg>
			<activity type="w" link="3852" start_time="10:00:19" end_time="18:41:52" >
			</activity>
			<leg mode="car">
			</leg>
			<activity type="h" link="5050" >
			</activity>
		</plan>

	</person>

<!-- ====================================================================== -->

	<person id="1042">
		<attributes>
			<attribute name="drivelogic" class="java.lang.String" >org.matsim.contrib.smartcity.agent.CLASSDriverLogicBasic</attribute>
		</attributes>
		<plan selected="yes">
			<activity type="h" link="3204" max_dur="08:23:00" >
			</activity>
			<leg mode="car">
			</leg>
			<activity type="w" link="6051" start_time="08:40:03" end_time="17:48:56" >
			</activity>
			<leg mode="car">
			</leg>
			<activity type="h" link="3204" >
			</activity>
		</plan>

	</person>

<!-- ====================================================================== -->

	<person id="1043">
		<attributes>
			<attribute name="drivelogic" class="java.lang.String" >org.matsim.contrib.smartcity.agent.CLASSDriverLogicBasic</attribute>
		</attributes>
		<plan selected="yes">