<?xml version="1.0" encoding="UTF-8"?>
<!DOCTYPE network SYSTEM "http://www.matsim.org/files/dtd/network_v2.dtd">
<network>

<!-- ====================================================================== -->

	<nodes>
		<node id="10053977753" x="652297.6434132953" y="4946889.661276607" >
		</node>
		<node id="10053977754" x="652295.8446609156" y="4946884.195081559" >
		</node>
		<node id="10053977755" x="652296.5626290087" y="4946886.379300492" >
		</node>
		<node id="10053977756" x="652293.5973760763" y="4946877.228994093" >
		</node>
		<node id="10053977757" x="652289.4303038724" y="4946864.882776488" >
		</node>
		<node id="10053977758" x="652304.5832775186" y="4946859.427210798" >
		</node>
		<node id="10053977759" x="652310.6170917504" y="4946877.71915706" >
		</node>
		<node id="10053977760" x="652311.1025675766" y="4946878.997636062" >
		</node>
		<node id="10053977761" x="652313.0892281445" y="4946884.568295128" >
		</node>
		<node id="10053977762" x="652311.8392685312" y="4946881.060040981" >
		</node>
		<node id="10053977769" x="652237.3793238358" y="4946909.535873" >
		</node>
		<node id="10053977770" x="652236.5196796717" y="4946907.303865417" >
		</node>
		<node id="10053977771" x="652235.8294805172" y="4946905.287023091" >
		</node>
		<node id="10053977772" x="652228.0291076803" y="4946883.519202651" >
		</node>
		<node id="10053977773" x="652261.1696197062" y="4946872.152261261" >
		</node>
		<node id="10053977774" x="652268.5328446322" y="4946892.942876131" >
		</node>
		<node id="10053977775" x="652270.693170058" y="4946898.550957103" >
		</node>
		<node id="10053977776" x="652269.6243764412" y="4946895.769413117" >
		</node>
		<node id="10053977777" x="652236.1486640254" y="4946906.217033283" >
		</node>
		<node id="10101023046" x="652205.3464041818" y="4947256.348087218" >
		</node>
		<node id="10101023047" x="652203.629744767" y="4947251.439563685" >
		</node>
		<node id="10101023048" x="652203.1140603074" y="4947247.404027679" >
		</node>
		<node id="10101023049" x="652243.2700187183" y="4947228.744673019" >
		</node>
		<node id="10101023050" x="652245.6400294155" y="4947231.845857591" >
		</node>
		<node id="10101023051" x="652248.3346559105" y="4947236.655186233" >
		</node>
		<node id="10101023052" x="652249.8398253666" y="4947240.102761288" >
		</node>
		<node id="10101023055" x="651952.920458496" y="4947402.115277707" >
		</node>
		<node id="10101023056" x="651966.0383425055" y="4947411.281996251" >
		</node>
		<node id="10101023057" x="652086.035302803" y="4947365.003284277" >
		</node>
		<node id="10101023058" x="652098.6329300624" y="4947364.933143708" >
		</node>
		<node id="10101023059" x="652105.5778475209" y="4947368.786637085" >
		</node>
		<node id="10101023060" x="652155.6923044841" y="4947505.817331134" >
		</node>
		<node id="10101023061" x="652033.8850283269" y="4947550.573844789" >
		</node>
		<node id="10101023062" x="652021.6864999477" y="4947549.54205647" >
		</node>
		<node id="10101023063" x="652010.1041254266" y="4947537.832823558" >
		</node>
		<node id="10101023064" x="651985.1124984329" y="4947403.617345462" >
		</node>
		<node id="10101023065" x="652036.4614294996" y="4947549.623088445" >
		</node>
		<node id="10101023066" x="652003.0894734927" y="4947396.738273349" >
		</node>
		<node id="10101023067" x="652053.8153737187" y="4947543.251879412" >
		</node>
		<node id="10101023068" x="652020.4822875441" y="4947390.078901321" >
		</node>
		<node id="10101023069" x="652072.2735306594" y="4947536.473255368" >
		</node>
		<node id="10101023070" x="652040.90844449" y="4947382.268400682" >
		</node>
		<node id="10101023071" x="652093.3723507493" y="4947528.712118062" >
		</node>
		<node id="10101023072" x="652061.1173060657" y="4947373.919359693" >
		</node>
		<node id="10101023073" x="652113.6867533542" y="4947521.254888642" >
		</node>
		<node id="10101023074" x="652078.7798660317" y="4947367.599918702" >
		</node>
		<node id="10101023075" x="652133.4254613789" y="4947513.995333019" >
		</node>
		<node id="10101023076" x="652178.9548060179" y="4947564.7933944" >
		</node>
		<node id="10101023077" x="652178.7899190255" y="4947571.79153559" >
		</node>
		<node id="10101023078" x="652172.4499118424" y="4947578.633069887" >
		</node>
		<node id="10101023079" x="652015.9421958323" y="4947632.853127525" >
		</node>
		<node id="10101023080" x="652004.7104153292" y="4947632.877749285" >
		</node>
		<node id="10101023081" x="651999.4821223838" y="4947628.553492567" >
		</node>
		<node id="10101023082" x="651986.7975697464" y="4947577.0624616835" >
		</node>
		<node id="10101023083" x="651991.0090998375" y="4947571.004239399" >
		</node>
		<node id="10101023084" x="652005.3946103499" y="4947555.949458725" >
		</node>
		<node id="10101023085" x="652052.332105136" y="4947553.697760979" >
		</node>
		<node id="10101023086" x="652069.030047431" y="4947559.692499326" >
		</node>
		<node id="10101023087" x="652079.4948454915" y="4947568.330206912" >
		</node>
		<node id="10101023088" x="652094.3795940566" y="4947568.1249867445" >
		</node>
		<node id="10101023089" x="652169.3596036653" y="4947540.460350402" >
		</node>
		<node id="10101023090" x="651984.7811129021" y="4947586.239889679" >
		</node>
		<node id="10101023091" x="651944.420672173" y="4947379.386627342" >
		</node>
		<node id="10101023092" x="651935.2146379956" y="4947353.29597403" >
		</node>
		<node id="10101023095" x="651937.783550143" y="4947414.3739300445" >
		</node>
		<node id="10101023096" x="651922.4814386731" y="4947387.795354245" >
		</node>
		<node id="10101023097" x="651983.064424583" y="4947459.307411625" >
		</node>
		<node id="10101023098" x="651965.5628646988" y="4947435.199912523" >
		</node>
		<node id="10101023099" x="651974.5734280769" y="4947453.405980185" >
		</node>
		<node id="1076629757" x="653073.9501188544" y="4946781.283076504" >
		</node>
		<node id="1076629758" x="653075.4804044681" y="4946788.01019564" >
		</node>
		<node id="1076629761" x="653074.6041977264" y="4946794.858124647" >
		</node>
		<node id="1076629764" x="653057.4331699334" y="4946808.777731234" >
		</node>
		<node id="1076629766" x="653050.520982822" y="4946808.224968869" >
		</node>
		<node id="1076629767" x="653044.2111084724" y="4946805.352462102" >
		</node>
		<node id="1076629769" x="653036.7300509673" y="4946795.661330228" >
		</node>
		<node id="1076629770" x="653035.5667985491" y="4946788.842886963" >
		</node>
		<node id="1076629771" x="653036.8150689824" y="4946782.025997055" >
		</node>
		<node id="1076629776" x="653052.24359479" y="4946769.332093379" >
		</node>
		<node id="1076629777" x="653059.183259902" y="4946769.396473686" >
		</node>
		<node id="1076629780" x="653065.678115264" y="4946771.828800867" >
		</node>
		<node id="1076629789" x="653377.8277465325" y="4946481.699385386" >
		</node>
		<node id="1076629791" x="653380.1646864048" y="4946468.473149137" >
		</node>
		<node id="1076629793" x="653385.2158435544" y="4946464.22510086" >
		</node>
		<node id="1076629794" x="653395.7237077282" y="4946463.040808018" >
		</node>
		<node id="1076629795" x="653404.3692163124" y="4946469.1255932525" >
		</node>
		<node id="1076629797" x="653406.8906934977" y="4946477.532380593" >
		</node>
		<node id="1076629799" x="653400.7711208144" y="4946489.357299164" >
		</node>
		<node id="1076629800" x="653388.9231539959" y="4946491.85460969" >
		</node>
		<node id="1076629802" x="652741.654031429" y="4946240.040350468" >
		</node>
		<node id="1076629803" x="652737.9124400951" y="4946242.263689063" >
		</node>
		<node id="1076629804" x="652723.7189952005" y="4946239.9387288615" >
		</node>
		<node id="1076629805" x="652721.5524409594" y="4946237.620193988" >
		</node>
		<node id="1076629806" x="652718.9258442059" y="4946230.933963295" >
		</node>
		<node id="1076629807" x="652719.0697714903" y="4946226.85840031" >
		</node>
		<node id="1076629808" x="652725.823756309" y="4946217.348554804" >
		</node>
		<node id="1076629809" x="652729.515524259" y="4946215.890921035" >
		</node>
		<node id="1076629810" x="652738.8449199059" y="4946216.9116771715" >
		</node>
		<node id="1076629811" x="652742.7138999986" y="4946219.70392033" >
		</node>
		<node id="1076629812" x="652746.5892631095" y="4946227.9312328" >
		</node>
		<node id="1076629813" x="652746.3061128638" y="4946232.525879189" >
		</node>
		<node id="1076629814" x="653273.0352866636" y="4946144.724926351" >
		</node>
		<node id="1076629815" x="653260.8490314439" y="4946151.426826574" >
		</node>
		<node id="1076629816" x="653244.0058792031" y="4946149.093451727" >
		</node>
		<node id="1076629817" x="653232.1380521648" y="4946134.674508606" >
		</node>
		<node id="1076629818" x="653232.1770793607" y="4946120.3156480575" >
		</node>
		<node id="1076629822" x="653275.3332011935" y="4946113.070081987" >
		</node>
		<node id="1076629825" x="653280.105745859" y="4946127.598653346" >
		</node>
		<node id="1076629832" x="653641.0525874667" y="4946135.97079412" >
		</node>
		<node id="1076629833" x="653638.2435838513" y="4946137.326650264" >
		</node>
		<node id="1076629835" x="653634.5219215339" y="4946137.693853549" >
		</node>
		<node id="1076629838" x="653628.8136959206" y="4946135.190765308" >
		</node>
		<node id="1076629840" x="653627.1086303397" y="4946133.160746321" >
		</node>
		<node id="1076629848" x="653625.7833447037" y="4946129.839370108" >
		</node>
		<node id="1076629850" x="653625.9196421544" y="4946125.44130106" >
		</node>
		<node id="1076629852" x="653627.9309292762" y="4946121.599072898" >
		</node>
		<node id="1076629853" x="653629.7474663164" y="4946119.941755384" >
		</node>
		<node id="1076629856" x="653636.7853501632" y="4946118.241864588" >
		</node>
		<node id="1076629859" x="653639.5743113419" y="4946119.06395702" >
		</node>
		<node id="1076629862" x="653642.5155325816" y="4946121.156714796" >
		</node>
		<node id="1076629867" x="653645.0148755547" y="4946125.817512458" >
		</node>
		<node id="1076629869" x="653645.2438017703" y="4946128.201441568" >
		</node>
		<node id="1106153758" x="652188.2248566386" y="4946024.63472925" >
		</node>
		<node id="1113595402" x="653097.322605063" y="4946327.881063081" >
		</node>
		<node id="1113595405" x="653107.9470389292" y="4946330.82249188" >
		</node>
		<node id="1113595406" x="653111.2003830452" y="4946329.454715037" >
		</node>
		<node id="1113595408" x="653095.2204300247" y="4946320.173447027" >
		</node>
		<node id="1113595409" x="653103.994015136" y="4946331.251197526" >
		</node>
		<node id="1113595412" x="653095.9426833483" y="4946324.847484617" >
		</node>
		<node id="1131729791" x="654724.0078762899" y="4947670.074367071" >
		</node>
		<node id="122006264" x="655112.3460978782" y="4946415.886091533" >
		</node>
		<node id="122006267" x="654916.6137080065" y="4946752.350747004" >
		</node>
		<node id="122006271" x="654836.3216699527" y="4946844.799398501" >
		</node>
		<node id="122006274" x="654803.4244906832" y="4946871.930721295" >
		</node>
		<node id="122006276" x="654673.8872298155" y="4946943.59535894" >
		</node>
		<node id="122006279" x="654258.3595981927" y="4947058.075325138" >
		</node>
		<node id="122006281" x="654214.2375643657" y="4947075.738653791" >
		</node>
		<node id="122006284" x="654107.843981237" y="4947138.697223195" >
		</node>
		<node id="1234767915" x="652369.9703775756" y="4946913.973330022" >
		</node>
		<node id="1234767917" x="652250.4956114772" y="4947249.29865221" >
		</node>
		<node id="1234767925" x="652334.9772045867" y="4946913.41481012" >
		</node>
		<node id="1234767926" x="652348.7704632946" y="4946890.266620636" >
		</node>
		<node id="1234767928" x="652204.5345594832" y="4947236.2676043315" >
		</node>
		<node id="1234767930" x="652338.9656715931" y="4946910.118992915" >
		</node>
		<node id="1234767935" x="652162.6133740434" y="4946969.892291195" >
		</node>
		<node id="1234767937" x="652216.7333328255" y="4947267.608478069" >
		</node>
		<node id="1234767938" x="652150.6699727527" y="4946961.686474857" >
		</node>
		<node id="1234767941" x="652241.6487699507" y="4947264.55016377" >
		</node>
		<node id="1234767944" x="652132.6362884627" y="4946897.821270827" >
		</node>
		<node id="1234767946" x="652218.3796780605" y="4947192.358844602" >
		</node>
		<node id="1234767950" x="652238.4911787345" y="4947208.370627266" >
		</node>
		<node id="1234767952" x="652264.9434031728" y="4947208.43839396" >
		</node>
		<node id="1234767954" x="652356.291344488" y="4946903.0142943235" >
		</node>
		<node id="1314391506" x="653229.9045678782" y="4946113.437526171" >
		</node>
		<node id="1345262963" x="652717.7512336689" y="4946210.4780350095" >
		</node>
		<node id="1345262968" x="652714.2507514822" y="4946206.527510609" >
		</node>
		<node id="1351412334" x="652323.2956723949" y="4946090.568665247" >
		</node>
		<node id="1351412335" x="652709.7971419621" y="4946197.252920354" >
		</node>
		<node id="1352881135" x="653344.7946407762" y="4946097.246281371" >
		</node>
		<node id="1352881143" x="653280.9352232204" y="4946150.825175365" >
		</node>
		<node id="1352896978" x="653056.4590988152" y="4946207.600151075" >
		</node>
		<node id="1352896984" x="652989.0392419451" y="4946204.969875911" >
		</node>
		<node id="1352896986" x="652977.7280142473" y="4946205.224447341" >
		</node>
		<node id="1352896988" x="652857.8316571796" y="4946206.810521743" >
		</node>
		<node id="1352918049" x="652199.870808431" y="4946053.628369335" >
		</node>
		<node id="1352918051" x="652204.712715599" y="4946059.588537216" >
		</node>
		<node id="1352918059" x="652704.7903325285" y="4946207.693220109" >
		</node>
		<node id="1352947074" x="652702.4231373903" y="4946195.40038486" >
		</node>
		<node id="1352947084" x="653175.8901053887" y="4946216.620958865" >
		</node>
		<node id="1352947085" x="653194.6018049202" y="4946217.097904818" >
		</node>
		<node id="1352947086" x="653066.0268874494" y="4946216.307059727" >
		</node>
		<node id="1352947087" x="653062.2991964065" y="4946216.263213785" >
		</node>
		<node id="1352947092" x="653046.340749989" y="4946216.107493787" >
		</node>
		<node id="1352947098" x="652992.4340657187" y="4946215.386617046" >
		</node>
		<node id="1352947099" x="652967.5073798384" y="4946215.040982007" >
		</node>
		<node id="1352947100" x="653178.7582112848" y="4946224.813564132" >
		</node>
		<node id="1352947101" x="653067.7412138027" y="4946224.650107493" >
		</node>
		<node id="1352947102" x="653062.5223477879" y="4946224.593165486" >
		</node>
		<node id="1352947111" x="653046.7460259737" y="4946224.4528721" >
		</node>
		<node id="1359255622" x="653219.1511428669" y="4946172.466663055" >
		</node>
		<node id="1359255623" x="653225.7398705921" y="4946178.324579326" >
		</node>
		<node id="1359255712" x="653360.6160990063" y="4946277.674995228" >
		</node>
		<node id="1359255732" x="653344.8876339004" y="4946284.8817212675" >
		</node>
		<node id="1359255735" x="653431.0120219165" y="4946347.722036421" >
		</node>
		<node id="1359261117" x="653389.8526309797" y="4946116.176548988" >
		</node>
		<node id="1359261119" x="653385.4511041257" y="4946119.784275298" >
		</node>
		<node id="1359262854" x="653385.5767365904" y="4946436.658831149" >
		</node>
		<node id="1359262856" x="653366.97431367" y="4946450.988280061" >
		</node>
		<node id="1419841622" x="652763.3789577485" y="4946539.874554799" >
		</node>
		<node id="1419841657" x="652898.5887583186" y="4946574.448778479" >
		</node>
		<node id="1419841705" x="653101.666643019" y="4946749.5080755465" >
		</node>
		<node id="1433699948" x="654771.881481757" y="4946614.062647724" >
		</node>
		<node id="1433699956" x="654779.0467901725" y="4946614.323217742" >
		</node>
		<node id="1433699957" x="654768.6974883545" y="4946614.842191964" >
		</node>
		<node id="1433699958" x="654782.9429626844" y="4946615.6058127" >
		</node>
		<node id="1433699959" x="654769.8202019606" y="4946616.3250892805" >
		</node>
		<node id="1433699960" x="654756.7998718421" y="4946621.048073484" >
		</node>
		<node id="1433699961" x="654797.5188890276" y="4946622.112477101" >
		</node>
		<node id="1433699963" x="654762.5393555395" y="4946622.874963485" >
		</node>
		<node id="1433699964" x="654747.0130863356" y="4946625.904104413" >
		</node>
		<node id="1433699966" x="654741.4878882179" y="4946627.716808643" >
		</node>
		<node id="1433699967" x="654759.6511015195" y="4946631.8418839825" >
		</node>
		<node id="1433699968" x="654738.7521158505" y="4946635.286959633" >
		</node>
		<node id="1433699969" x="654762.8829400716" y="4946643.967441814" >
		</node>
		<node id="1433699970" x="654742.9913408671" y="4946646.425212229" >
		</node>
		<node id="1433699971" x="654774.3574300631" y="4946650.455336276" >
		</node>
		<node id="1433699972" x="654831.6076220452" y="4946652.894089875" >
		</node>
		<node id="1433699973" x="654776.3349603069" y="4946655.993285514" >
		</node>
		<node id="1433699974" x="654754.6551640884" y="4946657.263383796" >
		</node>
		<node id="1433699975" x="654840.4985720763" y="4946668.867571461" >
		</node>
		<node id="1433699976" x="654745.9811885227" y="4946671.304434926" >
		</node>
		<node id="1433699977" x="654751.8243215521" y="4946684.037146137" >
		</node>
		<node id="1433699978" x="654932.8397832718" y="4946700.9461080795" >
		</node>
		<node id="1433699979" x="654764.151051152" y="4946700.315105629" >
		</node>
		<node id="1433699980" x="654908.0789647319" y="4946711.277948675" >
		</node>
		<node id="1433699981" x="654879.8519074537" y="4946711.3347556675" >
		</node>
		<node id="1433699982" x="654808.7260528157" y="4946716.565503828" >
		</node>
		<node id="1433699983" x="654779.3883792612" y="4946714.306543145" >
		</node>
		<node id="1433699984" x="654795.0283129693" y="4946719.438274546" >
		</node>
		<node id="1433699985" x="654840.0607154451" y="4946722.884805426" >
		</node>
		<node id="1433699986" x="654956.4625091203" y="4946729.799156781" >
		</node>
		<node id="1433699994" x="654860.6041392374" y="4946739.55996185" >
		</node>
		<node id="1433699995" x="654865.2015634044" y="4946739.7146235015" >
		</node>
		<node id="1433699996" x="654856.1831518719" y="4946739.98748825" >
		</node>
		<node id="1433699997" x="654848.4357474585" y="4946742.836057134" >
		</node>
		<node id="1433699998" x="654882.5561676652" y="4946744.1318874275" >
		</node>
		<node id="1433699999" x="654843.4081824766" y="4946745.071836433" >
		</node>
		<node id="1433700000" x="654838.2548637787" y="4946748.582776539" >
		</node>
		<node id="1433700001" x="654827.7594539543" y="4946759.179022866" >
		</node>
		<node id="1433700002" x="654958.9351692296" y="4946760.990291835" >
		</node>
		<node id="1433700003" x="654823.1835575791" y="4946781.298420328" >
		</node>
		<node id="1433700004" x="654968.5042013985" y="4946788.361530056" >
		</node>
		<node id="1433700007" x="654945.0234545486" y="4946800.568936946" >
		</node>
		<node id="1433700008" x="654836.9850702531" y="4946803.880478011" >
		</node>
		<node id="1433700009" x="654854.1811829826" y="4946809.938825996" >
		</node>
		<node id="1433700010" x="654997.2877720173" y="4946821.306446504" >
		</node>
		<node id="1433700011" x="654948.801327969" y="4946817.031264635" >
		</node>
		<node id="1433700012" x="654884.859903226" y="4946816.464937452" >
		</node>
		<node id="1433700013" x="654957.900070497" y="4946819.027827271" >
		</node>
		<node id="1433700014" x="654883.582114984" y="4946820.791200934" >
		</node>
		<node id="1433700015" x="654828.2921998651" y="4946824.667489011" >
		</node>
		<node id="1433700016" x="654974.831360239" y="4946831.159806625" >
		</node>
		<node id="1433700017" x="654957.0650730211" y="4946833.334443431" >
		</node>
		<node id="1433700018" x="654943.2651079518" y="4946838.160599367" >
		</node>
		<node id="1433700019" x="654882.7960173967" y="4946833.065031069" >
		</node>
		<node id="1433700020" x="655017.2491601013" y="4946844.025601744" >
		</node>
		<node id="1433700021" x="654884.4673809891" y="4946838.462307701" >
		</node>
		<node id="1433700022" x="654823.4540291631" y="4946841.512313271" >
		</node>
		<node id="1433700023" x="654934.2184749016" y="4946849.869533961" >
		</node>
		<node id="1433700024" x="654891.1113842234" y="4946848.213444824" >
		</node>
		<node id="1433700025" x="655050.4592506231" y="4946857.448704692" >
		</node>
		<node id="1433700026" x="654922.9051933088" y="4946855.866822515" >
		</node>
		<node id="1433700027" x="654906.7505368437" y="4946855.34606557" >
		</node>
		<node id="1433700028" x="655096.437476573" y="4946862.431353615" >
		</node>
		<node id="1433700029" x="654906.0542301424" y="4946859.241686741" >
		</node>
		<node id="1433700030" x="654858.2513163217" y="4946860.218507787" >
		</node>
		<node id="1433700031" x="654836.1558839848" y="4946866.279815999" >
		</node>
		<node id="1433716816" x="654089.0152445808" y="4946321.034574375" >
		</node>
		<node id="1433716822" x="654084.7813764783" y="4946337.227405113" >
		</node>
		<node id="1433716823" x="654114.786157241" y="4946360.816571976" >
		</node>
		<node id="1433716824" x="654264.7344648666" y="4946417.333146901" >
		</node>
		<node id="1433716825" x="654323.5322260495" y="4946443.411403783" >
		</node>
		<node id="1433716826" x="654293.2006143532" y="4946512.619310758" >
		</node>
		<node id="1433716827" x="654294.0732059107" y="4946537.536586208" >
		</node>
		<node id="1433716828" x="654242.0732560763" y="4946537.450880881" >
		</node>
		<node id="1433716829" x="654249.1133895435" y="4946553.590459035" >
		</node>
		<node id="1433716831" x="654196.9045741588" y="4946552.9555147765" >
		</node>
		<node id="1433716832" x="654543.2233662736" y="4946571.022016328" >
		</node>
		<node id="1433716833" x="654550.120251871" y="4946570.898016315" >
		</node>
		<node id="1433716834" x="654557.2582958277" y="4946577.937533013" >
		</node>
		<node id="1433716837" x="654561.2986201033" y="4946580.823928271" >
		</node>
		<node id="1433716840" x="654565.9188362667" y="4946583.3463061545" >
		</node>
		<node id="1433716844" x="654700.3701689463" y="4946600.235118822" >
		</node>
		<node id="1433716845" x="654590.1708256449" y="4946601.898703668" >
		</node>
		<node id="1433716846" x="654603.3658250258" y="4946610.094626446" >
		</node>
		<node id="1433716849" x="653905.2094980766" y="4946686.553773489" >
		</node>
		<node id="1433716850" x="654476.9283222842" y="4946954.776318347" >
		</node>
		<node id="1433716851" x="654471.6295010819" y="4946971.35471165" >
		</node>
		<node id="1433716852" x="654460.7863242263" y="4946983.26582107" >
		</node>
		<node id="1447327555" x="654372.5599406504" y="4947878.341981488" >
		</node>
		<node id="1450910959" x="655064.3961590425" y="4946860.139499033" >
		</node>
		<node id="1473360761" x="652163.5331361751" y="4946979.338894534" >
		</node>
		<node id="1473360772" x="652159.433630642" y="4946986.344379556" >
		</node>
		<node id="1473360775" x="652158.2704388112" y="4946994.641602993" >
		</node>
		<node id="1473360779" x="652156.2348576861" y="4947008.319835246" >
		</node>
		<node id="1476164942" x="653871.2757358496" y="4947184.973415314" >
		</node>
		<node id="1476164945" x="653871.5856646552" y="4947186.614623466" >
		</node>
		<node id="1476164946" x="653871.276375961" y="4947189.941593673" >
		</node>
		<node id="1476164947" x="653858.262006775" y="4947190.165090108" >
		</node>
		<node id="1476164948" x="653870.6730248623" y="4947191.29429993" >
		</node>
		<node id="1476164949" x="653859.9402902694" y="4947191.6388298245" >
		</node>
		<node id="1476164953" x="653861.7760812833" y="4947192.827345806" >
		</node>
		<node id="1476164955" x="653866.3490938519" y="4947193.992146471" >
		</node>
		<node id="1476164957" x="654082.7456912193" y="4947202.217917411" >
		</node>
		<node id="1476164959" x="654058.2824670282" y="4947206.535914522" >
		</node>
		<node id="1476164961" x="654106.6138437294" y="4947209.544902625" >
		</node>
		<node id="1476164963" x="654127.4565447927" y="4947226.313784618" >
		</node>
		<node id="1476164965" x="653931.0037755219" y="4947300.586462125" >
		</node>
		<node id="1476164966" x="653911.6069214593" y="4947317.007122048" >
		</node>
		<node id="1476164968" x="653900.3146381909" y="4947318.8720383085" >
		</node>
		<node id="1476164970" x="653930.737126898" y="4947320.097110309" >
		</node>
		<node id="1476164972" x="653927.7390002683" y="4947323.4155753665" >
		</node>
		<node id="1476164987" x="653788.1520487193" y="4947411.884962553" >
		</node>
		<node id="1476164995" x="653786.8550744746" y="4947426.047243297" >
		</node>
		<node id="1476165000" x="653524.4565820012" y="4947479.38952934" >
		</node>
		<node id="1476165001" x="653529.815093948" y="4947482.873458548" >
		</node>
		<node id="1476165002" x="653727.5261764663" y="4947504.5811900385" >
		</node>
		<node id="1476165003" x="653528.2394754689" y="4947502.108439235" >
		</node>
		<node id="1476165004" x="653750.4883188781" y="4947521.943917878" >
		</node>
		<node id="1476165006" x="653537.9286547779" y="4947516.609695154" >
		</node>
		<node id="1476165008" x="653733.3243668546" y="4947521.246386768" >
		</node>
		<node id="1476165015" x="653554.2312577792" y="4947523.510314369" >
		</node>
		<node id="1476165017" x="653754.2562150753" y="4947538.927584583" >
		</node>
		<node id="1476165018" x="653730.9670555356" y="4947538.306538127" >
		</node>
		<node id="1476165019" x="653750.1204814457" y="4947555.389673457" >
		</node>
		<node id="1476165020" x="653504.6765969534" y="4947556.387019002" >
		</node>
		<node id="1476165022" x="653705.2224642062" y="4947571.537336082" >
		</node>
		<node id="1476165023" x="653709.4376148585" y="4947581.396138584" >
		</node>
		<node id="1476165031" x="653479.1455625592" y="4947614.397808869" >
		</node>
		<node id="1476165033" x="653624.9862363248" y="4947626.456554665" >
		</node>
		<node id="1476165035" x="653632.1879393111" y="4947635.808390753" >
		</node>
		<node id="1476165036" x="653472.8800896883" y="4947635.066260581" >
		</node>
		<node id="1476165042" x="653525.3912300584" y="4947696.343348994" >
		</node>
		<node id="1476165044" x="653515.9343264659" y="4947696.107442417" >
		</node>
		<node id="1476167527" x="653524.1832852095" y="4947705.78413828" >
		</node>
		<node id="1476167533" x="653534.5944987703" y="4947715.923482102" >
		</node>
		<node id="1476173560" x="652992.0335982097" y="4947897.583593929" >
		</node>
		<node id="1476173566" x="653010.4173406358" y="4947915.71325604" >
		</node>
		<node id="1485574486" x="652158.9299379513" y="4946822.496432108" >
		</node>
		<node id="1485574488" x="652155.7984290568" y="4946846.329559724" >
		</node>
		<node id="1485574490" x="652208.5121770385" y="4946881.281042908" >
		</node>
		<node id="1631231228" x="653632.0080294674" y="4947674.382361136" >
		</node>
		<node id="1631231229" x="653621.0066774973" y="4947708.064203138" >
		</node>
		<node id="1631231232" x="653609.5470240178" y="4947685.985091054" >
		</node>
		<node id="1631231234" x="653623.2246269702" y="4947667.504765569" >
		</node>
		<node id="1631231236" x="653610.7415999577" y="4947671.775896209" >
		</node>
		<node id="1631231239" x="653644.8975499009" y="4947777.386504543" >
		</node>
		<node id="1631231240" x="653633.7155629732" y="4947684.292609456" >
		</node>
		<node id="1631231241" x="653660.5578657422" y="4947771.912880154" >
		</node>
		<node id="1631231244" x="653684.6313877158" y="4947844.196158906" >
		</node>
		<node id="1631231257" x="653636.7432357075" y="4947700.058233659" >
		</node>
		<node id="1631231259" x="653670.1571068967" y="4947849.16444537" >
		</node>
		<node id="1631231262" x="653615.8004927435" y="4947668.172878688" >
		</node>
		<node id="1642859385" x="653646.9725882364" y="4947783.848908803" >
		</node>
		<node id="1642859403" x="653635.104933836" y="4947748.922841095" >
		</node>
		<node id="1642859406" x="653616.0526760588" y="4947698.588005129" >
		</node>
		<node id="1642859417" x="653629.5728427789" y="4947789.09224131" >
		</node>
		<node id="1642859420" x="653600.6514538161" y="4947704.834802009" >
		</node>
		<node id="1642859438" x="653617.6303292373" y="4947754.642349988" >
		</node>
		<node id="1762465055" x="652981.0876655043" y="4947917.3635583" >
		</node>
		<node id="1762465056" x="652980.6556655198" y="4947930.912892849" >
		</node>
		<node id="1762465057" x="652977.8163887903" y="4947942.960331666" >
		</node>
		<node id="1762465058" x="652973.4784783588" y="4947952.982794994" >
		</node>
		<node id="1785813509" x="652325.7174631032" y="4946082.067735507" >
		</node>
		<node id="1785813511" x="652322.1642588013" y="4946094.476460382" >
		</node>
		<node id="1785841890" x="654454.3054266183" y="4946020.217817735" >
		</node>
		<node id="1786712257" x="653566.4933478046" y="4946239.418576889" >
		</node>
		<node id="1786899256" x="653043.3386358314" y="4946773.200112548" >
		</node>
		<node id="1786899257" x="653068.4020144907" y="4946804.180626616" >
		</node>
		<node id="1786899260" x="653368.7987733597" y="4947148.03845792" >
		</node>
		<node id="1911634226" x="653182.9219841416" y="4946133.507591966" >
		</node>
		<node id="1911634227" x="653187.2337862563" y="4946136.021630999" >
		</node>
		<node id="1911634231" x="653158.4383830917" y="4946103.407432454" >
		</node>
		<node id="1942501347" x="653918.1350257715" y="4946022.373404823" >
		</node>
		<node id="1942501361" x="653960.7078438957" y="4946073.980543325" >
		</node>
		<node id="1942501364" x="653966.8673697348" y="4946078.8509431295" >
		</node>
		<node id="1942501368" x="653975.6644689746" y="4946097.221563491" >
		</node>
		<node id="1942501371" x="653982.1894057116" y="4946119.383651987" >
		</node>
		<node id="1942501377" x="653396.2764528801" y="4946123.964633805" >
		</node>
		<node id="1942501382" x="653984.2168468527" y="4946142.505558905" >
		</node>
		<node id="1942501386" x="654004.5044745681" y="4946159.427321786" >
		</node>
		<node id="1942501388" x="653352.3573767691" y="4946155.998620822" >
		</node>