<routes xmlns:xsi="http://www.w3.org/2001/XMLSchema-instance" xsi:noNamespaceSchemaLocation="http://sumo.dlr.de/xsd/routes_file.xsd">
    <vType id="car" vClass="passenger" />
    <vType id="bicycle" vClass="bicycle" />
    <trip id="1644_0" depart="20151.00" from="2009" to="2071" type="car" />
    <trip id="354_0" depart="20870.00" from="463" to="39" type="car" />
    <trip id="2284_0" depart="21310.00" from="3249" to="1631" type="car" />
    <trip id="969_0" depart="21781.00" from="984" to="2509" type="car" />
    <trip id="1421_0" depart="21928.00" from="3541" to="2783" type="car" />
    <trip id="901_0" depart="21979.00" from="45" to="2235" type="car" />
    <trip id="1291_0" depart="22526.00" from="1484" to="2288" type="car" />
    <trip id="102_0" depart="22646.00" from="2610" to="2226" type="car" />
    <trip id="654_0" depart="22976.00" from="769" to="2298" type="car" />
    <trip id="778_0" depart="23197.00" from="2878" to="517" type="car" />
    <trip id="794_0" depart="23267.00" from="2418" to="2270" type="car" />
    <trip id="1083_0" depart="23316.00" from="599" to="750" type="car" />
    <trip id="2263_0" depart="23480.00" from="2065" to="1842" type="car" />
    <trip id="3_0" depart="23728.00" from="1748" to="3828" type="car" />
    <trip id="470_0" depart="23789.00" from="1747" to="1595" type="car" />
    <trip id="1930_0" depart="23802.00" from="2134" to="2304" type="car" />
    <trip id="1785_0" depart="23873.00" from="3775" to="2656" type="car" />
    <trip id="283_0" depart="23874.00" from="2061" to="1917" type="car" />
    <trip id="1012_0" depart="23902.00" from="1077" to="733" type="car" />
    <trip id="122_0" depart="23927.00" from="783" to="2693" type="car" />
    <trip id="66_0" depart="23981.00" from="2710" to="3834" type="car" />
    <trip id="2494_0" depart="24007.00" from="1990" to="1975" type="car" />
    <trip id="980_0" depart="24034.00" from="3725" to="3430" type="car" />
    <trip id="527_0" depart="24059.00" from="1062" to="3066" type="car" />
    <trip id="2202_0" depart="24129.00" from="3084" to="3849" type="car" />
    <trip id="2115_0" depart="24131.00" from="2528" to="1822" type="car" />
    <trip id="1307_0" depart="24135.00" from="298" to="3193" type="car" />
    <trip id="1959_0" depart="24179.00" from="3241" to="2849" type="car" />
    <trip id="2080_0" depart="24271.00" from="2993" to="3122" type="car" />
    <trip id="113_0" depart="24292.00" from="310" to="1214" type="car" />
    <trip id="1057_0" depart="24310.00" from="3336" to="2784" type="car" />
    <trip id="2274_0" depart="24327.00" from="463" to="140" type="car" />
    <trip id="2144_0" depart="24354.00" from="1456" to="3335" type="car" />
    <trip id="749_0" depart="24403.00" from="1973" to="1223" type="car" />
    <trip id="1153_0" depart="24451.00" from="1313" to="54" type="car" />
    <trip id="2492_0" depart="24462.00" from="2927" to="39" type="car" />
    <trip id="656_0" depart="24466.00" from="1625" to="2159" type="car" />
    <trip id="879_0" depart="24498.00" from="538" to="2157" type="car" />
    <trip id="2094_0" depart="24506.00" from="499" to="1144" type="car" />
    <trip id="1106_0" depart="24549.00" from="113" to="1907" type="car" />
    <trip id="1276_0" depart="24568.00" from="1218" to="2167" type="car" />
    <trip id="1182_0" depart="24580.00" from="344" to="3571" type="car" />
    <trip id="51_0" depart="24581.00" from="3837" to="729" type="car" />
    <trip id="977_0" depart="24662.00" from="3380" to="1671" type="car" />
    <trip id="1954_0" depart="24672.00" from="475" to="268" type="car" />
    <trip id="2234_0" depart="24711.00" from="3693" to="3391" type="car" />
    <trip id="417_0" depart="24747.00" from="3261" to="115" type="car" />
    <trip id="573_0" depart="24824.00" from="911" to="3456" type="car" />
    <trip id="828_0" depart="24848.00" from="2425" to="3291" type="car" />
    <trip id="2487_0" depart="24866.00" from="3646" to="1996" type="car" />
    <trip id="1664_0" depart="24877.00" from="462" to="3829" type="car" />
    <trip id="2065_0" depart="24915.00" from="2289" to="2414" type="car" />
    <trip id="1304_0" depart="24933.00" from="2555" to="587" type="car" />
    <trip id="898_0" depart="25008.00" from="2559" to="3771" type="car" />
    <trip id="130_0" depart="25034.00" from="1121" to="105" type="car" />
    <trip id="1404_0" depart="25103.00" from="2459" to="3819" type="car" />
    <trip id="234_0" depart="25104.00" from="908" to="1365" type="car" />
    <trip id="1024_0" depart="25105.00" from="1836" to="1539" type="car" />
    <trip id="1783_0" depart="25114.00" from="327" to="3099" type="car" />
    <trip id="453_0" depart="25141.00" from="2656" to="373" type="car" />
    <trip id="1869_0" depart="25205.00" from="1403" to="2900" type="car" />
    <trip id="1443_0" depart="25299.00" from="1769" to="885" type="car" />
    <trip id="1013_0" depart="25369.00" from="1484" to="1546" type="car" />
    <trip id="2314_0" depart="25421.00" from="2861" to="788" type="car" />
    <trip id="1312_0" depart="25447.00" from="1354" to="2901" type="car" />
    <trip id="1657_0" depart="25449.00" from="751" to="3423" type="car" />
    <trip id="1464_0" depart="25469.00" from="3643" to="2130" type="car" />
    <trip id="551_0" depart="25523.00" from="402" to="227" type="car" />
    <trip id="707_0" depart="25529.00" from="1730" to="2342" type="car" />
    <trip id="561_0" depart="25533.00" from="1460" to="1684" type="car" />
    <trip id="1998_0" depart="25557.00" from="72" to="986" type="car" />
    <trip id="2294_0" depart="25598.00" from="1150" to="1028" type="car" />
    <trip id="924_0" depart="25646.00" from="3382" to="3520" type="car" />
    <trip id="150_0" depart="25695.00" from="2876" to="698" type="car" />
    <trip id="409_0" depart="25737.00" from="541" to="1565" type="car" />
    <trip id="1724_0" depart="25764.00" from="496" to="2145" type="car" />
    <trip id="87_0" depart="25773.00" from="581" to="1174" type="car" />
    <trip id="1234_0" depart="25818.00" from="257" to="1488" type="car" />
    <trip id="2123_0" depart="25823.00" from="1624" to="193" type="car" />
    <trip id="940_0" depart="25848.00" from="1757" to="908" type="car" />
    <trip id="1486_0" depart="25859.00" from="1391" to="3541" type="car" />
    <trip id="1240_0" depart="25863.00" from="3427" to="1815" type="car" />
    <trip id="1180_0" depart="25871.00" from="3148" to="543" type="car" />
    <trip id="817_0" depart="25892.00" from="2936" to="72" type="car" />
    <trip id="950_0" depart="25916.00" from="1884" to="3566" type="car" />
    <trip id="765_0" depart="25925.00" from="364" to="2233" type="car" />
    <trip id="2157_0" depart="25926.00" from="1339" to="1274" type="car" />
    <trip id="1467_0" depart="25942.00" from="1476" to="2445" type="car" />
    <trip id="494_0" depart="25946.00" from="788" to="1613" type="car" />
    <trip id="756_0" depart="25952.00" from="1836" to="1651" type="car" />
    <trip id="2381_0" depart="25985.00" from="3826" to="1725" type="car" />
    <trip id="238_0" depart="25992.00" from="2735" to="2106" type="car" />
    <trip id="2412_0" depart="26015.00" from="1403" to="3259" type="car" />
    <trip id="2446_0" depart="26019.00" from="3507" to="1551" type="car" />
    <trip id="734_0" depart="26021.00" from="2889" to="3293" type="car" />
    <trip id="475_0" depart="26028.00" from="3227" to="1792" type="car" />
    <trip id="1351_0" depart="26030.00" from="3382" to="2782" type="car" />
    <trip id="1119_0" depart="26065.00" from="3471" to="1741" type="car" />
    <trip id="1888_0" depart="26079.00" from="1229" to="3055" type="car" />
    <trip id="885_0" depart="26093.00" from="623" to="2652" type="car" />
    <trip id="32_0" depart="26131.00" from="490" to="471" type="car" />
    <trip id="2281_0" depart="26175.00" from="3111" to="3665" type="car" />
    <trip id="449_0" depart="26208.00" from="747" to="2379" type="car" />
    <trip id="671_0" depart="26231.00" from="2221" to="609" type="car" />
    <trip id="2271_0" depart="26240.00" from="3335" to="1271" type="car" />
    <trip id="542_0" depart="26248.00" from="672" to="1746" type="car" />
    <trip id="1627_0" depart="26271.00" from="2451" to="2536" type="car" />
    <trip id="386_0" depart="26304.00" from="3787" to="635" type="car" />
    <trip id="1932_0" depart="26314.00" from="737" to="2603" type="car" />
    <trip id="474_0" depart="26333.00" from="779" to="1561" type="car" />
    <trip id="1226_0" depart="26346.00" from="3176" to="322" type="car" />
    <trip id="1071_0" depart="26350.00" from="2642" to="3412" type="car" />
    <trip id="2423_0" depart="26351.00" from="2866" to="274" type="car" />
    <trip id="190_0" depart="26361.00" from="1071" to="1180" type="car" />
    <trip id="1435_0" depart="26375.00" from="289" to="2963" type="car" />
    <trip id="1728_0" depart="26387.00" from="1254" to="1281" type="car" />
    <trip id="985_0" depart="26388.00" from="3252" to="1921" type="car" />
    <trip id="1645_0" depart="26394.00" from="3140" to="1687" type="car" />
    <trip id="955_0" depart="26397.00" from="1392" to="3877" type="car" />
    <trip id="2306_0" depart="26401.00" from="3670" to="399" type="car" />
    <trip id="2400_0" depart="26410.00" from="625" to="1894" type="car" />
    <trip id="1794_0" depart="26417.00" from="3065" to="2780" type="car" />
    <trip id="1572_0" depart="26449.00" from="3141" to="237" type="car" />
    <trip id="509_0" depart="26457.00" from="2136" to="3633" type="car" />
    <trip id="680_0" depart="26466.00" from="3859" to="1984" type="car" />
    <trip id="2361_0" depart="26489.00" from="910" to="967" type="car" />
    <trip id="2297_0" depart="26493.00" from="2284" to="865" type="car" />
    <trip id="673_0" depart="26504.00" from="3171" to="725" type="car" />
    <trip id="1022_0" depart="26547.00" from="395" to="2511" type="car" />
    <trip id="2370_0" depart="26549.00" from="3465" to="481" type="car" />
    <trip id="1239_0" depart="26552.00" from="294" to="274" type="car" />
    <trip id="1343_0" depart="26557.00" from="219" to="1224" type="car" />
    <trip id="1349_0" depart="26567.00" from="178" to="511" type="car" />
    <trip id="1357_0" depart="26585.00" from="447" to="1125" type="car" />
    <trip id="400_0" depart="26604.00" from="989" to="946" type="car" />
    <trip id="2447_0" depart="26622.00" from="378" to="1275" type="car" />
    <trip id="1245_0" depart="26648.00" from="932" to="728" type="car" />
    <trip id="2212_0" depart="26664.00" from="3813" to="105" type="car" />
    <trip id="355_0" depart="26666.00" from="3504" to="3844" type="car" />
    <trip id="1745_0" depart="26672.00" from="1807" to="1991" type="car" />
    <trip id="970_0" depart="26678.00" from="240" to="2604" type="car" />
    <trip id="2259_0" depart="26686.00" from="1071" to="3205" type="car" />
    <trip id="912_0" depart="26691.00" from="3737" to="3092" type="car" />
    <trip id="1533_0" depart="26704.00" from="960" to="2945" type="car" />
    <trip id="1528_0" depart="26709.00" from="1823" to="1649" type="car" />
    <trip id="1726_0" depart="26714.00" from="2679" to="499" type="car" />
    <trip id="2421_0" depart="26747.00" from="1868" to="2562" type="car" />
    <trip id="1400_0" depart="26755.00" from="983" to="3459" type="car" />
    <trip id="1718_0" depart="26767.00" from="3183" to="736" type="car" />
    <trip id="1098_0" depart="26769.00" from="2391" to="1827" type="car" />
    <trip id="2436_0" depart="26770.00" from="146" to="2594" type="car" />
    <trip id="854_0" depart="26795.00" from="1221" to="544" type="car" />
    <trip id="1261_0" depart="26803.00" from="631" to="527" type="car" />
    <trip id="2343_0" depart="26805.00" from="14" to="3224" type="car" />
    <trip id="1172_0" depart="26807.00" from="3730" to="2501" type="car" />
    <trip id="80_0" depart="26808.00" from="91" to="3136" type="car" />
    <trip id="1815_0" depart="26819.00" from="969" to="2437" type="car" />
    <trip id="1771_0" depart="26835.00" from="3835" to="216" type="car" />
    <trip id="2113_0" depart="26851.00" from="443" to="285" type="car" />
    <trip id="581_0" depart="26858.00" from="3047" to="1364" type="car" />
    <trip id="1567_0" depart="26865.00" from="2896" to="2043" type="car" />
    <trip id="597_0" depart="26865.00" from="2501" to="1167" type="car" />
    <trip id="2056_0" depart="26868.00" from="796" to="597" type="car" />
    <trip id="2404_0" depart="26880.00" from="484" to="3711" type="car" />
    <trip id="271_0" depart="26888.00" from="2981" to="2509" type="car" />
    <trip id="334_0" depart="26888.00" from="974" to="862" type="car" />
    <trip id="1309_0" depart="26918.00" from="3450" to="3651" type="car" />
    <trip id="1974_0" depart="26918.00" from="20" to="1620" type="car" />
    <trip id="2491_0" depart="26929.00" from="2600" to="2690" type="car" />
    <trip id="1286_0" depart="26937.00" from="531" to="3108" type="car" />
    <trip id="571_0" depart="26940.00" from="938" to="2419" type="car" />
    <trip id="1784_0" depart="26959.00" from="1274" to="2442" type="car" />
    <trip id="2308_0" depart="26964.00" from="1766" to="2784" type="car" />
    <trip id="624_0" depart="26967.00" from="2449" to="3077" type="car" />
    <trip id="1302_0" depart="26971.00" from="3182" to="565" type="car" />
    <trip id="2365_0" depart="26984.00" from="1081" to="2467" type="car" />
    <trip id="974_0" depart="26989.00" from="3466" to="3644" type="car" />
    <trip id="2295_0" depart="27000.00" from="1115" to="2771" type="car" />
    <trip id="946_0" depart="27038.00" from="3783" to="385" type="car" />
    <trip id="1786_0" depart="27047.00" from="3653" to="563" type="car" />
    <trip id="447_0" depart="27061.00" from="2665" to="3827" type="car" />
    <trip id="2109_0" depart="27073.00" from="3175" to="1950" type="car" />
    <trip id="1862_0" depart="27087.00" from="1973" to="1818" type="car" />
    <trip id="394_0" depart="27088.00" from="1891" to="2338" type="car" />
    <trip id="1893_0" depart="27096.00" from="2274" to="3776" type="car" />
    <trip id="1781_0" depart="27115.00" from="2466" to="520" type="car" />
    <trip id="445_0" depart="27115.00" from="700" to="37" type="car" />
    <trip id="939_0" depart="27122.00" from="2147" to="2568" type="car" />
    <trip id="2437_0" depart="27132.00" from="2566" to="2691" type="car" />
    <trip id="867_0" depart="27136.00" from="1481" to="2890" type="car" />
    <trip id="1364_0" depart="27147.00" from="680" to="349" type="car" />
    <trip id="2180_0" depart="27152.00" from="3874" to="2542" type="car" />
    <trip id="484_0" depart="27152.00" from="3226" to="1755" type="car" />
    <trip id="1218_0" depart="27155.00" from="3243" to="3682" type="car" />
    <trip id="1666_0" depart="27192.00" from="3806" to="669" type="car" />
    <trip id="123_0" depart="27213.00" from="2224" to="2942" type="car" />
    <trip id="368_0" depart="27231.00" from="3710" to="733" type="car" />
    <trip id="1737_0" depart="27254.00" from="198" to="3426" type="car" />
    <trip id="1991_0" depart="27256.00" from="838" to="3259" type="car" />
    <trip id="2120_0" depart="27258.00" from="1726" to="1608" type="car" />
    <trip id="2463_0" depart="27259.00" from="3734" to="2384" type="car" />
    <trip id="1890_0" depart="27261.00" from="1334" to="2595" type="car" />
    <trip id="1754_0" depart="27283.00" from="1114" to="2192" type="car" />
    <trip id="95_0" depart="27309.00" from="642" to="3322" type="car" />
    <trip id="605_0" depart="27367.00" from="584" to="24" type="car" />
    <trip id="1504_0" depart="27368.00" from="2530" to="869" type="car" />
    <trip id="1772_0" depart="27376.00" from="1914" to="386" type="car" />
    <trip id="1162_0" depart="27379.00" from="910" to="604" type="car" />
    <trip id="2392_0" depart="27383.00" from="1105" to="148" type="car" />
    <trip id="1204_0" depart="27389.00" from="545" to="13" type="car" />
    <trip id="846_0" depart="27397.00" from="2696" to="242" type="car" />
    <trip id="1680_0" depart="27402.00" from="392" to="3377" type="car" />
    <trip id="1640_0" depart="27412.00" from="3146" to="2301" type="car" />
    <trip id="2475_0" depart="27416.00" from="999" to="997" type="car" />
    <trip id="937_0" depart="27423.00" from="181" to="2860" type="car" />
    <trip id="2000_0" depart="27432.00" from="295" to="1069" type="car" />
    <trip id="174_0" depart="27434.00" from="2561" to="3860" type="car" />
    <trip id="1142_0" depart="27435.00" from="3132" to="931" type="car" />
    <trip id="1175_0" depart="27452.00" from="2847" to="3662" type="car" />
    <trip id="1411_0" depart="27452.00" from="1135" to="2123" type="car" />
    <trip id="289_0" depart="27462.00" from="3718" to="1677" type="car" />
    <trip id="2141_0" depart="27474.00" from="1606" to="1611" type="car" />
    <trip id="1715_0" depart="27475.00" from="530" to="604" type="car" />
    <trip id="1516_0" depart="27493.00" from="381" to="321" type="car" />
    <trip id="370_0" depart="27493.00" from="2583" to="142" type="car" />
    <trip id="2093_0" depart="27495.00" from="3202" to="38" type="car" />
    <trip id="1015_0" depart="27500.00" from="548" to="540" type="car" />
    <trip id="1407_0" depart="27516.00" from="3395" to="1113" type="car" />
    <trip id="587_0" depart="27520.00" from="2894" to="2034" type="car" />
    <trip id="1748_0" depart="27540.00" from="2079" to="3176" type="car" />
    <trip id="1440_0" depart="27549.00" from="3316" to="2365" type="car" />
    <trip id="1552_0" depart="27557.00" from="3731" to="444" type="car" />
    <trip id="2012_0" depart="27568.00" from="2295" to="598" type="car" />
    <trip id="1816_0" depart="27572.00" from="3014" to="3438" type="car" />
    <trip id="2075_0" depart="27577.00" from="1943" to="2602" type="car" />
    <trip id="1384_0" depart="27587.00" from="1760" to="3833" type="car" />
    <trip id="365_0" depart="27593.00" from="2125" to="487" type="car" />
    <trip id="647_0" depart="27599.00" from="3294" to="727" type="car" />
    <trip id="2244_0" depart="27609.00" from="1981" to="2925" type="car" />
    <trip id="986_0" depart="27619.00" from="1356" to="1310" type="car" />
    <trip id="1258_0" depart="27624.00" from="1481" to="2072" type="car" />
    <trip id="1336_0" depart="27629.00" from="2428" to="2672" type="car" />
    <trip id="1294_0" depart="27633.00" from="696" to="2422" type="car" />
    <trip id="1831_0" depart="27635.00" from="433" to="21" type="car" />
    <trip id="1941_0" depart="27636.00" from="1314" to="841" type="car" />
    <trip id="1324_0" depart="27637.00" from="3562" to="2574" type="car" />
    <trip id="377_0" depart="27642.00" from="2734" to="3205" type="car" />
    <trip id="1604_0" depart="27650.00" from="2309" to="5" type="car" />
    <trip id="1159_0" depart="27672.00" from="919" to="2425" type="car" />
    <trip id="852_0" depart="27673.00" from="2638" to="2344" type="car" />
    <trip id="414_0" depart="27675.00" from="2455" to="1139" type="car" />
    <trip id="206_0" depart="27685.00" from="1958" to="3212" type="car" />
    <trip id="1517_0" depart="27686.00" from="1271" to="359" type="car" />
    <trip id="503_0" depart="27694.00" from="2641" to="2447" type="car" />
    <trip id="181_0" depart="27699.00" from="3880" to="3363" type="car" />
    <trip id="752_0" depart="27704.00" from="2347" to="3668" type="car" />
    <trip id="88_0" depart="27719.00" from="3324" to="620" type="car" />
    <trip id="1078_0" depart="27723.00" from="295" to="340" type="car" />
    <trip id="1564_0" depart="27723.00" from="1887" to="3446" type="car" />
    <trip id="1841_0" depart="27736.00" from="923" to="3191" type="car" />
    <trip id="1624_0" depart="27738.00" from="2783" to="832" type="car" />
    <trip id="781_0" depart="27762.00" from="3562" to="1585" type="car" />
    <trip id="1388_0" depart="27772.00" from="776" to="3705" type="car" />
    <trip id="1663_0" depart="27772.00" from="215" to="932" type="car" />
    <trip id="1463_0" depart="27780.00" from="595" to="1281" type="car" />
    <trip id="948_0" depart="27791.00" from="1752" to="3779" type="car" />
    <trip id="1227_0" depart="27794.00" from="2849" to="82" type="car" />
    <trip id="2410_0" depart="27797.00" from="88" to="3722" type="car" />
    <trip id="983_0" depart="27809.00" from="2445" to="921" type="car" />
    <trip id="2296_0" depart="27810.00" from="1895" to="140" type="car" />
    <trip id="612_0" depart="27818.00" from="854" to="1079" type="car" />
    <trip id="907_0" depart="27821.00" from="3897" to="181" type="car" />
    <trip id="2290_0" depart="27822.00" from="2540" to="705" type="car" />
    <trip id="393_0" depart="27838.00" from="2628" to="2925" type="car" />
    <trip id="2059_0" depart="27854.00" from="1120" to="766" type="car" />
    <trip id="662_0" depart="27861.00" from="881" to="567" type="car" />
    <trip id="1262_0" depart="27863.00" from="172" to="3517" type="car" />
    <trip id="1688_0" depart="27889.00" from="2448" to="476" type="car" />
    <trip id="1165_0" depart="27893.00" from="3789" to="1910" type="car" />
    <trip id="564_0" depart="27897.00" from="1845" to="3868" type="car" />
    <trip id="2351_0" depart="27899.00" from="1954" to="2338" type="car" />
    <trip id="623_0" depart="27901.00" from="342" to="907" type="car" />
    <trip id="217_0" depart="27903.00" from="682" to="378" type="car" />
    <trip id="1114_0" depart="27912.00" from="2626" to="952" type="car" />
    <trip id="433_0" depart="27912.00" from="1356" to="3631" type="car" />
    <trip id="338_0" depart="27918.00" from="771" to="3470" type="car" />
    <trip id="1238_0" depart="27935.00" from="200" to="1131" type="car" />
    <trip id="127_0" depart="27941.00" from="3091" to="3441" type="car" />
    <trip id="2313_0" depart="27946.00" from="262" to="549" type="car" />
    <trip id="563_0" depart="27947.00" from="3870" to="1098" type="car" />
    <trip id="347_0" depart="27953.00" from="459" to="165" type="car" />
    <trip id="72_0" depart="27954.00" from="1939" to="172" type="car" />
    <trip id="572_0" depart="27976.00" from="2033" to="2948" type="car" />
    <trip id="2160_0" depart="27977.00" from="2880" to="408" type="car" />
    <trip id="1225_0" depart="27984.00" from="18" to="1363" type="car" />
    <trip id="1682_0" depart="27994.00" from="1933" to="3848" type="car" />
    <trip id="1069_0" depart="27997.00" from="1625" to="1714" type="car" />
    <trip id="1684_0" depart="28015.00" from="3750" to="407" type="car" />
    <trip id="2496_0" depart="28019.00" from="1522" to="2669" type="car" />
    <trip id="1898_0" depart="28040.00" from="607" to="2218" type="car" />
    <trip id="621_0" depart="28047.00" from="894" to="35" type="car" />
    <trip id="263_0" depart="28068.00" from="3510" to="1201" type="car" />
    <trip id="2312_0" depart="28080.00" from="1687" to="37" type="car" />
    <trip id="2330_0" depart="28084.00" from="3887" to="2401" type="car" />
    <trip id="1246_0" depart="28095.00" from="841" to="3435" type="car" />
    <trip id="982_0" depart="28095.00" from="2298" to="415" type="car" />
    <trip id="847_0" depart="28098.00" from="353" to="67" type="car" />
    <trip id="1656_0" depart="28099.00" from="1890" to="147" type="car" />
    <trip id="552_0" depart="28120.00" from="691" to="3582" type="car" />
    <trip id="1048_0" depart="28127.00" from="3136" to="2020" type="car" />
    <trip id="2348_0" depart="28135.00" from="2295" to="2082" type="car" />
    <trip id="713_0" depart="28159.00" from="257" to="310" type="car" />
    <trip id="528_0" depart="28167.00" from="3783" to="1683" type="car" />
    <trip id="1483_0" depart="28170.00" from="3804" to="2633" type="car" />
    <trip id="2052_0" depart="28170.00" from="1717" to="982" type="car" />
    <trip id="1544_0" depart="28172.00" from="3575" to="683" type="car" />
    <trip id="463_0" depart="28187.00" from="1716" to="3546" type="car" />
    <trip id="491_0" depart="28203.00" from="910" to="3528" type="car" />
    <trip id="2179_0" depart="28208.00" from="2921" to="1102" type="car" />
    <trip id="1112_0" depart="28218.00" from="281" to="915" type="car" />
    <trip id="2070_0" depart="28220.00" from="1075" to="334" type="car" />
    <trip id="232_0" depart="28221.00" from="1890" to="1971" type="car" />
    <trip id="225_0" depart="28226.00" from="1919" to="1077" type="car" />
    <trip id="2238_0" depart="28227.00" from="2162" to="2657" type="car" />
    <trip id="1016_0" depart="28245.00" from="2893" to="1607" type="car" />
    <trip id="2185_0" depart="28252.00" from="1462" to="554" type="car" />
    <trip id="1569_0" depart="28259.00" from="1941" to="1928" type="car" />
    <trip id="11_0" depart="28260.00" from="3760" to="3171" type="car" />
    <trip id="1300_0" depart="28262.00" from="2564" to="3824" type="car" />
    <trip id="151_0" depart="28267.00" from="2739" to="1846" type="car" />
    <trip id="1145_0" depart="28268.00" from="3406" to="232" type="car" />
    <trip id="2291_0" depart="28287.00" from="2959" to="2694" type="car" />
    <trip id="266_0" depart="28305.00" from="960" to="1099" type="car" />
    <trip id="76_0" depart="28306.00" from="1782" to="1249" type="car" />
    <trip id="1719_0" depart="28312.00" from="1870" to="2907" type="car" />
    <trip id="2442_0" depart="28314.00" from="2322" to="165" type="car" />
    <trip id="389_0" depart="28322.00" from="2317" to="2588" type="car" />
    <trip id="806_0" depart="28322.00" from="3864" to="2445" type="car" />
    <trip id="723_0" depart="28325.00" from="703" to="2626" type="car" />
    <trip id="2067_0" depart="28329.00" from="1385" to="2748" type="car" />
    <trip id="2383_0" depart="28331.00" from="1759" to="1763" type="car" />
    <trip id="1901_0" depart="28338.00" from="670" to="1967" type="car" />
    <trip id="1855_0" depart="28344.00" from="1270" to="1099" type="car" />
    <trip id="954_0" depart="28351.00" from="2508" to="1755" type="car" />
    <trip id="2178_0" depart="28356.00" from="2483" to="3350" type="car" />
    <trip id="249_0" depart="28356.00" from="3573" to="2000" type="car" />
    <trip id="541_0" depart="28359.00" from="787" to="3816" type="car" />
    <trip id="392_0" depart="28365.00" from="3069" to="2363" type="car" />
    <trip id="1026_0" depart="28370.00" from="1285" to="3671" type="car" />
    <trip id="1451_0" depart="28391.00" from="3697" to="770" type="car" />
    <trip id="1625_0" depart="28391.00" from="2588" to="3351" type="car" />
    <trip id="1402_0" depart="28394.00" from="2856" to="3000" type="car" />
    <trip id="1266_0" depart="28411.00" from="3540" to="1596" type="car" />
    <trip id="226_0" depart="28428.00" from="3854" to="2901" type="car" />
    <trip id="1213_0" depart="28437.00" from="2904" to="132" type="car" />
    <trip id="419_0" depart="28440.00" from="358" to="2264" type="car" />
    <trip id="768_0" depart="28448.00" from="2781" to="476" type="car" />
    <trip id="2455_0" depart="28455.00" from="1994" to="2421" type="car" />
    <trip id="1325_0" depart="28460.00" from="2265" to="3276" type="car" />
    <trip id="31_0" depart="28462.00" from="2295" to="1979" type="car" />
    <trip id="83_0" depart="28468.00" from="3790" to="3156" type="car" />
    <trip id="2249_0" depart="28469.00" from="3310" to="3827" type="car" />
    <trip id="1813_0" depart="28472.00" from="1590" to="3788" type="car" />
    <trip id="1293_0" depart="28474.00" from="1008" to="3690" type="car" />
    <trip id="2389_0" depart="28483.00" from="864" to="2140" type="car" />
    <trip id="101_0" depart="28491.00" from="2994" to="3838" type="car" />
    <trip id="2105_0" depart="28493.00" from="3841" to="15" type="car" />
    <trip id="843_0" depart="28493.00" from="2170" to="1611" type="car" />
    <trip id="1722_0" depart="28500.00" from="1048" to="3428" type="car" />
    <trip id="1557_0" depart="28501.00" from="2920" to="1485" type="car" />
    <trip id="2462_0" depart="28523.00" from="2334" to="1616" type="car" />
    <trip id="918_0" depart="28524.00" from="3144" to="3504" type="car" />
    <trip id="2173_0" depart="28532.00" from="3372" to="1523" type="car" />
    <trip id="2022_0" depart="28539.00" from="1268" to="1963" type="car" />
    <trip id="2432_0" depart="28541.00" from="2570" to="3744" type="car" />
    <trip id="1768_0" depart="28556.00" from="1457" to="1738" type="car" />
    <trip id="1909_0" depart="28556.00" from="671" to="2515" type="car" />
    <trip id="900_0" depart="28559.00" from="289" to="565" type="car" />
    <trip id="462_0" depart="28576.00" from="2063" to="2092" type="car" />
    <trip id="1790_0" depart="28577.00" from="1864" to="3135" type="car" />
    <trip id="691_0" depart="28600.00" from="1895" to="1116" type="car" />
    <trip id="1458_0" depart="28602.00" from="1485" to="376" type="car" />
    <trip id="2158_0" depart="28608.00" from="632" to="3048" type="car" />
    <trip id="41_0" depart="28615.00" from="3534" to="735" type="car" />
    <trip id="2089_0" depart="28622.00" from="2189" to="2924" type="car" />
    <trip id="2324_0" depart="28628.00" from="2371" to="2912" type="car" />
    <trip id="1211_0" depart="28632.00" from="280" to="1462" type="car" />
    <trip id="1273_0" depart="28633.00" from="3474" to="654" type="car" />
    <trip id="1505_0" depart="28652.00" from="3252" to="3803" type="car" />
    <trip id="882_0" depart="28659.00" from="3104" to="3110" type="car" />
    <trip id="282_0" depart="28663.00" from="2325" to="1215" type="car" />
    <trip id="1233_0" depart="28675.00" from="171" to="695" type="car" />
    <trip id="472_0" depart="28675.00" from="698" to="509" type="car" />
    <trip id="1578_0" depart="28686.00" from="336" to="950" type="car" />
    <trip id="1222_0" depart="28694.00" from="3322" to="2323" type="car" />
    <trip id="1009_0" depart="28696.00" from="3719" to="883" type="car" />
    <trip id="2121_0" depart="28702.00" from="353" to="947" type="car" />