<routes xmlns:xsi="http://www.w3.org/2001/XMLSchema-instance" xsi:noNamespaceSchemaLocation="http://sumo.dlr.de/xsd/routes_file.xsd">
    <trip id="13_1" depart="56667.00" from="276" to="192" type="car" />
    <trip id="21_1" depart="58553.00" from="237" to="161" type="car" />
    <trip id="30_1" depart="58869.00" from="65" to="540" type="car" />
    <trip id="41_1" depart="59139.00" from="242" to="66" type="car" />
    <trip id="6_1" depart="59271.00" from="213" to="503" type="car" />
    <trip id="69_1" depart="59391.00" from="23" to="90" type="car" />
    <trip id="23_1" depart="59490.00" from="610" to="340" type="car" />
    <trip id="35_1" depart="60534.00" from="370" to="23" type="car" />
    <trip id="53_1" depart="60891.00" from="112" to="259" type="car" />
    <trip id="17_1" depart="61005.00" from="78" to="404" type="car" />
    <trip id="46_1" depart="61156.00" from="621" to="523" type="car" />
    <trip id="9_1" depart="61207.00" from="200" to="495" type="car" />
<trip id="20_1" depart="61337.00" from="81" to="325" type="car" />
    <trip id="86_1" depart="61377.00" from="196" to="426" type="car" />
    <trip id="98_1" depart="61379.00" from="432" to="607" type="car" />
    <trip id="54_1" depart="61421.00" from="213" to="5" type="car" />
    <trip id="59_1" depart="61438.00" from="168" to="593" type="car" />
    <trip id="44_1" depart="61679.00" from="164" to="241" type="car" />
    <trip id="39_1" depart="61730.00" from="407" to="439" type="car" />
    <trip id="85_1" depart="61786.00" from="174" to="10" type="car" />
    <trip id="65_1" depart="61916.00" from="505" to="349" type="car" />
    <trip id="84_1" depart="62065.00" from="47" to="534" type="car" />
    <trip id="16_1" depart="62141.00" from="351" to="206" type="car" />
    <trip id="92_1" depart="62206.00" from="276" to="453" type="car" />
    <trip id="87_1" depart="62404.00" from="598" to="407" type="car" />
    <trip id="5_1" depart="62484.00" from="217" to="514" type="car" />
    <trip id="2_1" depart="62500.00" from="199" to="187" type="car" />
    <trip id="24_1" depart="62879.00" from="342" to="433" type="car" />
    <trip id="37_1" depart="62960.00" from="213" to="522" type="car" />
    <trip id="76_1" depart="63038.00" from="310" to="144" type="car" />
    <trip id="90_1" depart="63269.00" from="621" to="257" type="car" />
    <trip id="80_1" depart="63413.00" from="221" to="605" type="car" />
    <trip id="14_1" depart="63672.00" from="485" to="610" type="car" />
    <trip id="91_1" depart="63951.00" from="169" to="224" type="car" />
    <trip id="73_1" depart="64058.00" from="108" to="195" type="car" />
    <trip id="66_1" depart="64083.00" from="352" to="265" type="car" />
    <trip id="93_1" depart="64169.00" from="573" to="140" type="car" />
    <trip id="10_1" depart="64379.00" from="197" to="151" type="car" />
    <trip id="62_1" depart="64381.00" from="185" to="130" type="car" />
    <trip id="40_1" depart="64438.00" from="562" to="550" type="car" />
    <trip id="79_1" depart="64524.00" from="263" to="116" type="car" />
    <trip id="3_1" depart="64528.00" from="163" to="445" type="car" />
    <trip id="96_1" depart="64544.00" from="541" to="52" type="car" />
    <trip id="81_1" depart="64629.00" from="399" to="442" type="car" />
    <trip id="33_1" depart="64724.00" from="473" to="2" type="car" />
    <trip id="95_1" depart="64773.00" from="512" to="573" type="car" />
    <trip id="32_1" depart="64894.00" from="571" to="264" type="car" />
    <trip id="83_1" depart="65124.00" from="205" to="64" type="car" />
    <trip id="55_1" depart="65212.00" from="259" to="66" type="car" />
    <trip id="27_1" depart="65231.00" from="523" to="338" type="car" />
    <trip id="60_1" depart="65255.00" from="562" to="270" type="car" />
    <trip id="15_1" depart="65293.00" from="283" to="549" type="car" />
    <trip id="61_1" depart="65432.00" from="31" to="471" type="car" />
    <trip id="11_1" depart="65455.00" from="176" to="375" type="car" />
    <trip id="28_1" depart="65539.00" from="211" to="272" type="car" />
    <trip id="29_1" depart="65625.00" from="579" to="138" type="car" />
    <trip id="78_1" depart="65769.00" from="526" to="397" type="car" />
    <trip id="97_1" depart="65781.00" from="189" to="9" type="car" />
    <trip id="71_1" depart="65855.00" from="457" to="247" type="car" />
    <trip id="51_1" depart="65877.00" from="394" to="477" type="car" />
    <trip id="18_1" depart="65908.00" from="627" to="242" type="car" />
    <trip id="48_1" depart="65966.00" from="175" to="333" type="car" />
    <trip id="4_1" depart="65972.00" from="233" to="358" type="car" />
    <trip id="99_1" depart="65974.00" from="283" to="449" type="car" />
    <trip id="50_1" depart="66044.00" from="540" to="309" type="car" />
    <trip id="42_1" depart="66054.00" from="218" to="256" type="car" />
    <trip id="45_1" depart="66105.00" from="329" to="468" type="car" />
    <trip id="25_1" depart="66151.00" from="435" to="279" type="car" />
    <trip id="64_1" depart="66573.00" from="485" to="275" type="car" />
    <trip id="70_1" depart="66597.00" from="159" to="348" type="car" />
    <trip id="72_1" depart="66695.00" from="192" to="570" type="car" />
    <trip id="75_1" depart="66946.00" from="49" to="312" type="car" />
    <trip id="0_1" depart="67048.00" from="620" to="582" type="car" />
    <trip id="94_1" depart="67248.00" from="169" to="352" type="car" />
    <trip id="63_1" depart="67561.00" from="382" to="324" type="car" />
    <trip id="56_1" depart="67584.00" from="185" to="273" type="car" />
    <trip id="22_1" depart="67730.00" from="99" to="437" type="car" />
    <trip id="1_1" depart="67840.00" from="578" to="19" type="car" />
    <trip id="19_1" depart="67882.00" from="227" to="442" type="car" />
    <trip id="82_1" depart="68089.00" from="226" to="206" type="car" />
    <trip id="8_1" depart="68112.00" from="12" to="224" type="car" />
    <trip id="77_1" depart="68143.00" from="382" to="50" type="car" />
    <trip id="88_1" depart="68179.00" from="590" to="449" type="car" />
    <trip id="38_1" depart="68448.00" from="511" to="179" type="car" />
    <trip id="34_1" depart="68517.00" from="504" to="465" type="car" />
    <trip id="67_1" depart="69117.00" from="340" to="613" type="car" />
    <trip id="89_1" depart="69320.00" from="449" to="551" type="car" />
    <trip id="49_1" depart="69451.00" from="250" to="543" type="car" />
    <trip id="12_1" depart="69479.00" from="209" to="345" type="car" />
    <trip id="74_1" depart="69539.00" from="60" to="291" type="car" />
    <trip id="43_1" depart="69911.00" from="359" to="24" type="car" />
    <trip id="36_1" depart="70073.00" from="373" to="140" type="car" />
    <trip id="47_1" depart="70297.00" from="529" to="21" type="car" />
    <trip id="31_1" depart="71192.00" from="187" to="353" type="car" />
    <trip id="57_1" depart="71431.00" from="284" to="481" type="car" />
    <trip id="26_1" depart="71536.00" from="208" to="500" type="car" />
    <trip id="68_1" depart="72315.00" from="596" to="222" type="car" />
    <trip id="7_1" depart="72338.00" from="190" to="222" type="car" />
    <trip id="58_1" depart="72410.00" from="447" to="352" type="car" />
    <trip id="52_1" depart="74507.00" from="63" to="352" type="car" />
    <trip id="0_0" depart="0" from="582" to="620" type="car" />
    <trip id="10_0" depart="0" from="151" to="197" type="car" />
    <trip id="11_0" depart="0" from="375" to="176" type="car" />
    <trip id="12_0" depart="0" from="345" to="209" type="car" />
    <trip id="13_0" depart="0" from="192" to="276" type="car" />
    <trip id="14_0" depart="0" from="610" to="485" type="car" />
    <trip id="15_0" depart="0" from="549" to="283" type="car" />
    <trip id="16_0" depart="0" from="206" to="351" type="car" />
    <trip id="17_0" depart="0" from="404" to="78" type="car" />
    <trip id="18_0" depart="0" from="242" to="627" type="car" />
    <trip id="19_0" depart="0" from="442" to="227" type="car" />
    <trip id="1_0" depart="0" from="19" to="578" type="car" />
    <trip id="20_0" depart="0" from="325" to="81" type="car" />
    <trip id="21_0" depart="0" from="161" to="237" type="car" />
    <trip id="22_0" depart="0" from="437" to="99" type="car" />
    <trip id="23_0" depart="0" from="340" to="610" type="car" />
    <trip id="24_0" depart="0" from="433" to="342" type="car" />
    <trip id="25_0" depart="0" from="279" to="435" type="car" />
    <trip id="26_0" depart="0" from="500" to="208" type="car" />
    <trip id="27_0" depart="0" from="338" to="523" type="car" />
    <trip id="28_0" depart="0" from="272" to="211" type="car" />
    <trip id="29_0" depart="0" from="138" to="579" type="car" />
    <trip id="2_0" depart="0" from="187" to="199" type="car" />
    <trip id="30_0" depart="0" from="540" to="65" type="car" />
    <trip id="31_0" depart="0" from="353" to="187" type="car" />
    <trip id="32_0" depart="0" from="264" to="571" type="car" />
    <trip id="33_0" depart="0" from="2" to="473" type="car" />
    <trip id="34_0" depart="0" from="465" to="504" type="car" />
    <trip id="35_0" depart="0" from="23" to="370" type="car" />
    <trip id="36_0" depart="0" from="140" to="373" type="car" />
    <trip id="37_0" depart="0" from="522" to="213" type="car" />
    <trip id="38_0" depart="0" from="179" to="511" type="car" />
    <trip id="39_0" depart="0" from="439" to="407" type="car" />
    <trip id="3_0" depart="0" from="445" to="163" type="car" />
    <trip id="40_0" depart="0" from="550" to="562" type="car" />
    <trip id="41_0" depart="0" from="66" to="242" type="car" />
    <trip id="42_0" depart="0" from="256" to="218" type="car" />
    <trip id="43_0" depart="0" from="24" to="359" type="car" />
    <trip id="44_0" depart="0" from="241" to="164" type="car" />
    <trip id="45_0" depart="0" from="468" to="329" type="car" />
    <trip id="46_0" depart="0" from="523" to="621" type="car" />
    <trip id="47_0" depart="0" from="21" to="529" type="car" />
    <trip id="48_0" depart="0" from="333" to="175" type="car" />
    <trip id="49_0" depart="0" from="543" to="250" type="car" />
    <trip id="4_0" depart="0" from="358" to="233" type="car" />
    <trip id="50_0" depart="0" from="309" to="540" type="car" />
    <trip id="51_0" depart="0" from="477" to="394" type="car" />
    <trip id="52_0" depart="0" from="352" to="63" type="car" />
    <trip id="53_0" depart="0" from="259" to="112" type="car" />
    <trip id="54_0" depart="0" from="5" to="213" type="car" />
    <trip id="55_0" depart="0" from="66" to="259" type="car" />
    <trip id="56_0" depart="0" from="273" to="185" type="car" />
    <trip id="57_0" depart="0" from="481" to="284" type="car" />
    <trip id="58_0" depart="0" from="352" to="447" type="car" />
    <trip id="59_0" depart="0" from="593" to="168" type="car" />
    <trip id="5_0" depart="0" from="514" to="217" type="car" />
    <trip id="60_0" depart="0" from="270" to="562" type="car" />
    <trip id="61_0" depart="0" from="471" to="31" type="car" />
    <trip id="62_0" depart="0" from="130" to="185" type="car" />
    <trip id="63_0" depart="0" from="324" to="382" type="car" />
    <trip id="64_0" depart="0" from="275" to="485" type="car" />
    <trip id="65_0" depart="0" from="349" to="505" type="car" />
    <trip id="66_0" depart="0" from="265" to="352" type="car" />
    <trip id="67_0" depart="0" from="613" to="340" type="car" />
    <trip id="68_0" depart="0" from="222" to="596" type="car" />
    <trip id="69_0" depart="0" from="90" to="23" type="car" />
    <trip id="6_0" depart="0" from="503" to="213" type="car" />
    <trip id="70_0" depart="0" from="348" to="159" type="car" />
    <trip id="71_0" depart="0" from="247" to="457" type="car" />
    <trip id="72_0" depart="0" from="570" to="192" type="car" />
    <trip id="73_0" depart="0" from="195" to="108" type="car" />
    <trip id="74_0" depart="0" from="291" to="60" type="car" />
    <trip id="75_0" depart="0" from="312" to="49" type="car" />
    <trip id="76_0" depart="0" from="144" to="310" type="car" />
    <trip id="77_0" depart="0" from="50" to="382" type="car" />
    <trip id="78_0" depart="0" from="397" to="526" type="car" />
    <trip id="79_0" depart="0" from="116" to="263" type="car" />
    <trip id="7_0" depart="0" from="222" to="190" type="car" />
    <trip id="80_0" depart="0" from="605" to="221" type="car" />
    <trip id="81_0" depart="0" from="442" to="399" type="car" />
    <trip id="82_0" depart="0" from="206" to="226" type="car" />
    <trip id="83_0" depart="0" from="64" to="205" type="car" />
    <trip id="84_0" depart="0" from="534" to="47" type="car" />
    <trip id="85_0" depart="0" from="10" to="174" type="car" />
    <trip id="86_0" depart="0" from="426" to="196" type="car" />
    <trip id="87_0" depart="0" from="407" to="598" type="car" />
    <trip id="88_0" depart="0" from="449" to="590" type="car" />
    <trip id="89_0" depart="0" from="551" to="449" type="car" />
    <trip id="8_0" depart="0" from="224" to="12" type="car" />
    <trip id="90_0" depart="0" from="257" to="621" type="car" />
    <trip id="91_0" depart="0" from="224" to="169" type="car" />
    <trip id="92_0" depart="0" from="453" to="276" type="car" />
    <trip id="93_0" depart="0" from="140" to="573" type="car" />
    <trip id="94_0" depart="0" from="352" to="169" type="car" />
    <trip id="95_0" depart="0" from="573" to="512" type="car" />
    <trip id="96_0" depart="0" from="52" to="541" type="car" />
    <trip id="97_0" depart="0" from="9" to="189" type="car" />
    <trip id="98_0" depart="0" from="607" to="432" type="car" />
    <trip id="99_0" depart="0" from="449" to="283" type="car" />
    <trip id="9_0" depart="0" from="495" to="200" type="car" />
    <vType id="car" vClass="passenger" />
    <vType id="bicycle" vClass="bicycle" />

    </routes>