<routes xmlns:xsi="http://www.w3.org/2001/XMLSchema-instance" xsi:noNamespaceSchemaLocation="http://sumo.dlr.de/xsd/routes_file.xsd">
    <trip id="725_1" depart="52475.00" from="552" to="514" type="car" />
    <trip id="1306_1" depart="52931.00" from="203" to="617" type="car" />
    <trip id="160_1" depart="53904.00" from="191" to="431" type="car" />
    <trip id="1750_1" depart="54318.00" from="113" to="361" type="car" />
    <trip id="1474_1" depart="54529.00" from="435" to="500" type="car" />
    <trip id="25_1" depart="54594.00" from="435" to="279" type="car" />
    <trip id="1040_1" depart="54752.00" from="248" to="445" type="car" />
    <trip id="1849_1" depart="54760.00" from="448" to="436" type="car" />
    <trip id="1178_1" depart="55378.00" from="359" to="625" type="car" />
    <trip id="1077_1" depart="55383.00" from="414" to="339" type="car" />
    <trip id="715_1" depart="55789.00" from="430" to="72" type="car" />
    <trip id="551_1" depart="55924.00" from="136" to="592" type="car" />
    <trip id="1785_1" depart="55938.00" from="5" to="396" type="car" />
    <trip id="401_1" depart="56028.00" from="27" to="231" type="car" />
    <trip id="846_1" depart="56086.00" from="327" to="356" type="car" />
    <trip id="301_1" depart="56117.00" from="234" to="183" type="car" />
    <trip id="90_1" depart="56160.00" from="621" to="257" type="car" />
    <trip id="221_1" depart="56171.00" from="436" to="116" type="car" />
    <trip id="316_1" depart="56195.00" from="407" to="330" type="car" />
    <trip id="1771_1" depart="56395.00" from="215" to="529" type="car" />
    <trip id="1871_1" depart="56505.00" from="377" to="121" type="car" />
    <trip id="410_1" depart="56506.00" from="541" to="107" type="car" />
    <trip id="1894_1" depart="56584.00" from="31" to="17" type="car" />
    <trip id="1732_1" depart="56612.00" from="601" to="15" type="car" />
    <trip id="576_1" depart="56669.00" from="118" to="333" type="car" />
    <trip id="102_1" depart="56768.00" from="24" to="421" type="car" />
    <trip id="1556_1" depart="56825.00" from="80" to="113" type="car" />
    <trip id="1638_1" depart="56881.00" from="176" to="354" type="car" />
    <trip id="1321_1" depart="56953.00" from="160" to="459" type="car" />
    <trip id="1986_1" depart="56954.00" from="433" to="622" type="car" />
    <trip id="531_1" depart="56975.00" from="616" to="166" type="car" />
    <trip id="430_1" depart="56999.00" from="607" to="66" type="car" />
    <trip id="57_1" depart="57043.00" from="284" to="481" type="car" />
    <trip id="561_1" depart="57259.00" from="550" to="167" type="car" />
    <trip id="1763_1" depart="57297.00" from="422" to="409" type="car" />
    <trip id="1259_1" depart="57355.00" from="400" to="56" type="car" />
    <trip id="1713_1" depart="57364.00" from="25" to="552" type="car" />
    <trip id="312_1" depart="57384.00" from="135" to="4" type="car" />
    <trip id="667_1" depart="57445.00" from="55" to="119" type="car" />
    <trip id="472_1" depart="57447.00" from="272" to="581" type="car" />
    <trip id="1126_1" depart="57478.00" from="358" to="30" type="car" />
    <trip id="1186_1" depart="57487.00" from="539" to="290" type="car" />
    <trip id="826_1" depart="57516.00" from="499" to="2" type="car" />
    <trip id="646_1" depart="57580.00" from="2" to="67" type="car" />
    <trip id="712_1" depart="57582.00" from="480" to="29" type="car" />
    <trip id="1343_1" depart="57587.00" from="109" to="400" type="car" />
    <trip id="1733_1" depart="57678.00" from="153" to="340" type="car" />
    <trip id="1737_1" depart="57702.00" from="91" to="342" type="car" />
    <trip id="609_1" depart="57714.00" from="624" to="285" type="car" />
    <trip id="182_1" depart="57767.00" from="503" to="116" type="car" />
    <trip id="671_1" depart="57826.00" from="610" to="539" type="car" />
    <trip id="748_1" depart="57865.00" from="483" to="47" type="car" />
    <trip id="1719_1" depart="57921.00" from="597" to="268" type="car" />
    <trip id="716_1" depart="57947.00" from="7" to="420" type="car" />
    <trip id="79_1" depart="57999.00" from="263" to="116" type="car" />
    <trip id="286_1" depart="58039.00" from="525" to="587" type="car" />
    <trip id="994_1" depart="58055.00" from="390" to="421" type="car" />
    <trip id="197_1" depart="58059.00" from="226" to="344" type="car" />
    <trip id="1451_1" depart="58079.00" from="532" to="229" type="car" />
    <trip id="1937_1" depart="58082.00" from="602" to="387" type="car" />
    <trip id="690_1" depart="58091.00" from="198" to="536" type="car" />
    <trip id="173_1" depart="58105.00" from="438" to="13" type="car" />
    <trip id="340_1" depart="58117.00" from="11" to="359" type="car" />
    <trip id="481_1" depart="58157.00" from="604" to="208" type="car" />
    <trip id="86_1" depart="58160.00" from="196" to="426" type="car" />
    <trip id="1296_1" depart="58196.00" from="184" to="127" type="car" />
    <trip id="810_1" depart="58273.00" from="329" to="114" type="car" />
    <trip id="1369_1" depart="58312.00" from="471" to="138" type="car" />
    <trip id="1621_1" depart="58348.00" from="160" to="25" type="car" />
    <trip id="311_1" depart="58355.00" from="2" to="280" type="car" />
    <trip id="1830_1" depart="58387.00" from="286" to="17" type="car" />
    <trip id="251_1" depart="58397.00" from="377" to="185" type="car" />
    <trip id="498_1" depart="58407.00" from="347" to="428" type="car" />
    <trip id="1092_1" depart="58423.00" from="518" to="310" type="car" />
    <trip id="1003_1" depart="58462.00" from="252" to="135" type="car" />
    <trip id="70_1" depart="58481.00" from="159" to="348" type="car" />
    <trip id="394_1" depart="58490.00" from="471" to="159" type="car" />
    <trip id="862_1" depart="58504.00" from="571" to="366" type="car" />
    <trip id="1827_1" depart="58594.00" from="51" to="149" type="car" />
    <trip id="907_1" depart="58599.00" from="30" to="370" type="car" />
    <trip id="1142_1" depart="58600.00" from="342" to="101" type="car" />
    <trip id="1359_1" depart="58631.00" from="163" to="461" type="car" />
    <trip id="1187_1" depart="58651.00" from="17" to="609" type="car" />
    <trip id="1230_1" depart="58659.00" from="49" to="589" type="car" />
    <trip id="180_1" depart="58664.00" from="90" to="401" type="car" />
    <trip id="626_1" depart="58691.00" from="427" to="151" type="car" />
    <trip id="1393_1" depart="58698.00" from="353" to="67" type="car" />
    <trip id="1022_1" depart="58699.00" from="178" to="405" type="car" />
    <trip id="341_1" depart="58704.00" from="301" to="557" type="car" />
    <trip id="1169_1" depart="58716.00" from="568" to="523" type="car" />
    <trip id="1351_1" depart="58725.00" from="220" to="230" type="car" />
    <trip id="548_1" depart="58814.00" from="63" to="16" type="car" />
    <trip id="1922_1" depart="58821.00" from="232" to="296" type="car" />
    <trip id="1932_1" depart="58821.00" from="269" to="339" type="car" />
    <trip id="953_1" depart="58848.00" from="340" to="270" type="car" />
    <trip id="705_1" depart="58874.00" from="519" to="20" type="car" />
    <trip id="837_1" depart="58879.00" from="533" to="582" type="car" />
    <trip id="1905_1" depart="58916.00" from="47" to="250" type="car" />
    <trip id="1952_1" depart="58949.00" from="346" to="431" type="car" />
    <trip id="1116_1" depart="58952.00" from="21" to="29" type="car" />
    <trip id="419_1" depart="58976.00" from="434" to="583" type="car" />
    <trip id="1838_1" depart="59017.00" from="430" to="410" type="car" />
    <trip id="507_1" depart="59026.00" from="135" to="539" type="car" />
    <trip id="684_1" depart="59026.00" from="59" to="164" type="car" />
    <trip id="815_1" depart="59032.00" from="549" to="259" type="car" />
    <trip id="1625_1" depart="59042.00" from="515" to="346" type="car" />
    <trip id="1968_1" depart="59081.00" from="531" to="187" type="car" />
    <trip id="534_1" depart="59092.00" from="454" to="128" type="car" />
    <trip id="1190_1" depart="59093.00" from="18" to="299" type="car" />
    <trip id="1531_1" depart="59106.00" from="86" to="154" type="car" />
    <trip id="766_1" depart="59108.00" from="141" to="238" type="car" />
    <trip id="213_1" depart="59188.00" from="458" to="370" type="car" />
    <trip id="1417_1" depart="59196.00" from="54" to="534" type="car" />
    <trip id="1776_1" depart="59225.00" from="111" to="406" type="car" />
    <trip id="1623_1" depart="59236.00" from="253" to="467" type="car" />
    <trip id="1597_1" depart="59263.00" from="547" to="460" type="car" />
    <trip id="1864_1" depart="59285.00" from="339" to="595" type="car" />
    <trip id="72_1" depart="59320.00" from="192" to="570" type="car" />
    <trip id="287_1" depart="59322.00" from="494" to="623" type="car" />
    <trip id="1934_1" depart="59336.00" from="492" to="246" type="car" />
    <trip id="1285_1" depart="59337.00" from="344" to="327" type="car" />
    <trip id="220_1" depart="59343.00" from="475" to="621" type="car" />
    <trip id="583_1" depart="59344.00" from="188" to="404" type="car" />
    <trip id="1973_1" depart="59348.00" from="209" to="437" type="car" />
    <trip id="65_1" depart="59351.00" from="505" to="349" type="car" />
    <trip id="1455_1" depart="59354.00" from="169" to="57" type="car" />
    <trip id="816_1" depart="59357.00" from="445" to="113" type="car" />
    <trip id="156_1" depart="59383.00" from="146" to="102" type="car" />
    <trip id="1309_1" depart="59387.00" from="427" to="452" type="car" />
    <trip id="1089_1" depart="59415.00" from="274" to="153" type="car" />
    <trip id="969_1" depart="59421.00" from="376" to="473" type="car" />
    <trip id="1980_1" depart="59425.00" from="164" to="330" type="car" />
    <trip id="779_1" depart="59431.00" from="222" to="7" type="car" />
    <trip id="484_1" depart="59432.00" from="267" to="542" type="car" />
    <trip id="1931_1" depart="59434.00" from="364" to="201" type="car" />
    <trip id="1466_1" depart="59474.00" from="495" to="451" type="car" />
    <trip id="1241_1" depart="59481.00" from="276" to="184" type="car" />
    <trip id="1_1" depart="59495.00" from="578" to="19" type="car" />
    <trip id="688_1" depart="59509.00" from="138" to="260" type="car" />
    <trip id="1478_1" depart="59578.00" from="185" to="551" type="car" />
    <trip id="1960_1" depart="59581.00" from="54" to="568" type="car" />
    <trip id="1822_1" depart="59610.00" from="440" to="139" type="car" />
    <trip id="1757_1" depart="59623.00" from="140" to="435" type="car" />
    <trip id="1336_1" depart="59630.00" from="395" to="492" type="car" />
    <trip id="1698_1" depart="59630.00" from="101" to="548" type="car" />
    <trip id="1662_1" depart="59639.00" from="139" to="523" type="car" />
    <trip id="1528_1" depart="59660.00" from="409" to="337" type="car" />
    <trip id="172_1" depart="59687.00" from="445" to="382" type="car" />
    <trip id="1892_1" depart="59693.00" from="193" to="160" type="car" />
    <trip id="1340_1" depart="59716.00" from="261" to="123" type="car" />
    <trip id="1494_1" depart="59759.00" from="370" to="131" type="car" />
    <trip id="186_1" depart="59765.00" from="132" to="626" type="car" />
    <trip id="1585_1" depart="59824.00" from="353" to="461" type="car" />
    <trip id="1536_1" depart="59828.00" from="492" to="261" type="car" />
    <trip id="1967_1" depart="59829.00" from="31" to="226" type="car" />
    <trip id="1135_1" depart="59842.00" from="351" to="120" type="car" />
    <trip id="1679_1" depart="59844.00" from="301" to="113" type="car" />
    <trip id="313_1" depart="59858.00" from="483" to="156" type="car" />
    <trip id="875_1" depart="59861.00" from="137" to="204" type="car" />
    <trip id="602_1" depart="59880.00" from="593" to="543" type="car" />
    <trip id="1665_1" depart="59889.00" from="298" to="398" type="car" />
    <trip id="161_1" depart="59891.00" from="626" to="245" type="car" />
    <trip id="334_1" depart="59909.00" from="555" to="348" type="car" />
    <trip id="1746_1" depart="59916.00" from="224" to="627" type="car" />
    <trip id="101_1" depart="59920.00" from="304" to="269" type="car" />
    <trip id="1364_1" depart="59920.00" from="282" to="474" type="car" />
    <trip id="983_1" depart="59935.00" from="431" to="421" type="car" />
    <trip id="628_1" depart="59952.00" from="71" to="270" type="car" />
    <trip id="997_1" depart="59964.00" from="68" to="537" type="car" />
    <trip id="778_1" depart="59986.00" from="494" to="204" type="car" />
    <trip id="1350_1" depart="59998.00" from="69" to="140" type="car" />
    <trip id="900_1" depart="60003.00" from="263" to="590" type="car" />
    <trip id="383_1" depart="60021.00" from="1" to="516" type="car" />
    <trip id="133_1" depart="60022.00" from="132" to="328" type="car" />
    <trip id="767_1" depart="60035.00" from="390" to="536" type="car" />
    <trip id="175_1" depart="60036.00" from="466" to="521" type="car" />
    <trip id="839_1" depart="60037.00" from="122" to="455" type="car" />
    <trip id="1260_1" depart="60044.00" from="246" to="385" type="car" />
    <trip id="1795_1" depart="60083.00" from="284" to="75" type="car" />
    <trip id="1622_1" depart="60085.00" from="10" to="350" type="car" />
    <trip id="1084_1" depart="60110.00" from="238" to="361" type="car" />
    <trip id="1472_1" depart="60110.00" from="352" to="473" type="car" />
    <trip id="211_1" depart="60146.00" from="396" to="251" type="car" />
    <trip id="1467_1" depart="60152.00" from="337" to="504" type="car" />
    <trip id="494_1" depart="60172.00" from="179" to="421" type="car" />
    <trip id="918_1" depart="60175.00" from="112" to="83" type="car" />
    <trip id="1457_1" depart="60194.00" from="453" to="59" type="car" />
    <trip id="988_1" depart="60201.00" from="435" to="235" type="car" />
    <trip id="1195_1" depart="60203.00" from="436" to="121" type="car" />
    <trip id="1362_1" depart="60217.00" from="140" to="245" type="car" />
    <trip id="1760_1" depart="60231.00" from="197" to="384" type="car" />
    <trip id="1156_1" depart="60234.00" from="73" to="264" type="car" />
    <trip id="995_1" depart="60245.00" from="276" to="240" type="car" />
    <trip id="1449_1" depart="60246.00" from="123" to="491" type="car" />
    <trip id="1163_1" depart="60262.00" from="7" to="14" type="car" />
    <trip id="1070_1" depart="60268.00" from="348" to="257" type="car" />
    <trip id="335_1" depart="60271.00" from="600" to="435" type="car" />
    <trip id="663_1" depart="60278.00" from="383" to="271" type="car" />
    <trip id="271_1" depart="60289.00" from="80" to="165" type="car" />
    <trip id="528_1" depart="60290.00" from="476" to="231" type="car" />
    <trip id="921_1" depart="60290.00" from="114" to="273" type="car" />
    <trip id="452_1" depart="60311.00" from="463" to="364" type="car" />
    <trip id="828_1" depart="60314.00" from="208" to="282" type="car" />
    <trip id="458_1" depart="60346.00" from="452" to="517" type="car" />
    <trip id="408_1" depart="60354.00" from="174" to="576" type="car" />
    <trip id="1581_1" depart="60357.00" from="567" to="471" type="car" />
    <trip id="943_1" depart="60362.00" from="208" to="283" type="car" />
    <trip id="1873_1" depart="60364.00" from="150" to="628" type="car" />
    <trip id="1501_1" depart="60377.00" from="283" to="408" type="car" />
    <trip id="174_1" depart="60380.00" from="22" to="4" type="car" />
    <trip id="1516_1" depart="60384.00" from="545" to="539" type="car" />
    <trip id="954_1" depart="60390.00" from="342" to="271" type="car" />
    <trip id="1886_1" depart="60395.00" from="210" to="622" type="car" />
    <trip id="375_1" depart="60400.00" from="583" to="161" type="car" />
    <trip id="1648_1" depart="60410.00" from="257" to="627" type="car" />
    <trip id="1081_1" depart="60416.00" from="175" to="375" type="car" />
    <trip id="207_1" depart="60436.00" from="91" to="508" type="car" />
    <trip id="661_1" depart="60441.00" from="625" to="336" type="car" />
    <trip id="1075_1" depart="60449.00" from="157" to="380" type="car" />
    <trip id="279_1" depart="60451.00" from="549" to="397" type="car" />
    <trip id="284_1" depart="60456.00" from="423" to="241" type="car" />
    <trip id="47_1" depart="60459.00" from="529" to="21" type="car" />
    <trip id="898_1" depart="60501.00" from="598" to="197" type="car" />
    <trip id="1206_1" depart="60506.00" from="340" to="450" type="car" />
    <trip id="422_1" depart="60510.00" from="134" to="209" type="car" />
    <trip id="1098_1" depart="60514.00" from="450" to="594" type="car" />
    <trip id="1479_1" depart="60545.00" from="444" to="516" type="car" />
    <trip id="1055_1" depart="60546.00" from="628" to="224" type="car" />
    <trip id="1991_1" depart="60550.00" from="308" to="279" type="car" />
    <trip id="62_1" depart="60557.00" from="185" to="130" type="car" />
    <trip id="1521_1" depart="60560.00" from="518" to="443" type="car" />
    <trip id="1239_1" depart="60578.00" from="143" to="478" type="car" />
    <trip id="959_1" depart="60580.00" from="591" to="31" type="car" />
    <trip id="869_1" depart="60584.00" from="600" to="52" type="car" />
    <trip id="1179_1" depart="60589.00" from="11" to="14" type="car" />
    <trip id="1235_1" depart="60590.00" from="524" to="72" type="car" />
    <trip id="243_1" depart="60594.00" from="622" to="165" type="car" />
    <trip id="1404_1" depart="60603.00" from="118" to="141" type="car" />
    <trip id="1080_1" depart="60611.00" from="277" to="479" type="car" />
    <trip id="1959_1" depart="60624.00" from="230" to="445" type="car" />
    <trip id="938_1" depart="60624.00" from="470" to="255" type="car" />
    <trip id="331_1" depart="60625.00" from="568" to="212" type="car" />
    <trip id="1751_1" depart="60626.00" from="459" to="382" type="car" />
    <trip id="631_1" depart="60630.00" from="390" to="473" type="car" />
    <trip id="849_1" depart="60632.00" from="425" to="614" type="car" />
    <trip id="1058_1" depart="60644.00" from="101" to="89" type="car" />
    <trip id="641_1" depart="60661.00" from="5" to="152" type="car" />
    <trip id="1428_1" depart="60671.00" from="153" to="275" type="car" />
    <trip id="51_1" depart="60671.00" from="394" to="477" type="car" />
    <trip id="867_1" depart="60672.00" from="368" to="269" type="car" />
    <trip id="303_1" depart="60684.00" from="433" to="264" type="car" />
    <trip id="580_1" depart="60688.00" from="129" to="482" type="car" />
    <trip id="1947_1" depart="60707.00" from="266" to="449" type="car" />
    <trip id="1354_1" depart="60720.00" from="372" to="233" type="car" />
    <trip id="282_1" depart="60729.00" from="143" to="347" type="car" />
    <trip id="1962_1" depart="60737.00" from="127" to="82" type="car" />
    <trip id="1855_1" depart="60739.00" from="210" to="440" type="car" />
    <trip id="188_1" depart="60743.00" from="373" to="189" type="car" />
    <trip id="1659_1" depart="60747.00" from="401" to="442" type="car" />
    <trip id="1377_1" depart="60748.00" from="327" to="210" type="car" />
    <trip id="185_1" depart="60752.00" from="95" to="90" type="car" />
    <trip id="1858_1" depart="60757.00" from="291" to="197" type="car" />
    <trip id="1378_1" depart="60790.00" from="524" to="231" type="car" />
    <trip id="683_1" depart="60798.00" from="594" to="624" type="car" />
    <trip id="752_1" depart="60802.00" from="608" to="93" type="car" />
    <trip id="138_1" depart="60807.00" from="608" to="133" type="car" />
    <trip id="273_1" depart="60807.00" from="563" to="104" type="car" />
    <trip id="1233_1" depart="60812.00" from="173" to="368" type="car" />
    <trip id="578_1" depart="60816.00" from="180" to="136" type="car" />
    <trip id="726_1" depart="60816.00" from="570" to="425" type="car" />
    <trip id="199_1" depart="60818.00" from="586" to="16" type="car" />
    <trip id="1598_1" depart="60822.00" from="305" to="402" type="car" />
    <trip id="1936_1" depart="60824.00" from="460" to="18" type="car" />
    <trip id="44_1" depart="60830.00" from="164" to="241" type="car" />
    <trip id="540_1" depart="60842.00" from="465" to="64" type="car" />
    <trip id="895_1" depart="60849.00" from="460" to="349" type="car" />
    <trip id="71_1" depart="60856.00" from="457" to="247" type="car" />
    <trip id="1725_1" depart="60862.00" from="591" to="562" type="car" />
    <trip id="1577_1" depart="60882.00" from="252" to="565" type="car" />
    <trip id="367_1" depart="60885.00" from="569" to="440" type="car" />
    <trip id="1212_1" depart="60894.00" from="485" to="331" type="car" />
    <trip id="651_1" depart="60903.00" from="49" to="18" type="car" />
    <trip id="1764_1" depart="60927.00" from="130" to="506" type="car" />
    <trip id="776_1" depart="60929.00" from="136" to="338" type="car" />
    <trip id="179_1" depart="60949.00" from="48" to="208" type="car" />
    <trip id="11_1" depart="60950.00" from="176" to="375" type="car" />
    <trip id="1490_1" depart="60973.00" from="611" to="129" type="car" />
    <trip id="1589_1" depart="60973.00" from="52" to="604" type="car" />
    <trip id="1491_1" depart="60987.00" from="199" to="396" type="car" />
    <trip id="354_1" depart="60999.00" from="85" to="473" type="car" />
    <trip id="1508_1" depart="61016.00" from="192" to="96" type="car" />
    <trip id="330_1" depart="61025.00" from="326" to="283" type="car" />
    <trip id="395_1" depart="61025.00" from="162" to="200" type="car" />
    <trip id="1482_1" depart="61028.00" from="31" to="565" type="car" />
    <trip id="737_1" depart="61030.00" from="135" to="70" type="car" />
    <trip id="762_1" depart="61039.00" from="56" to="240" type="car" />
    <trip id="1674_1" depart="61047.00" from="301" to="106" type="car" />
    <trip id="453_1" depart="61067.00" from="425" to="581" type="car" />
    <trip id="562_1" depart="61087.00" from="455" to="114" type="car" />
    <trip id="194_1" depart="61100.00" from="407" to="85" type="car" />
    <trip id="555_1" depart="61109.00" from="595" to="29" type="car" />
    <trip id="355_1" depart="61117.00" from="14" to="27" type="car" />
    <trip id="1898_1" depart="61139.00" from="512" to="352" type="car" />
    <trip id="1927_1" depart="61147.00" from="295" to="50" type="car" />
    <trip id="784_1" depart="61151.00" from="449" to="47" type="car" />
    <trip id="1974_1" depart="61152.00" from="88" to="312" type="car" />
    <trip id="1027_1" depart="61153.00" from="244" to="607" type="car" />
    <trip id="1122_1" depart="61181.00" from="110" to="589" type="car" />
    <trip id="1073_1" depart="61182.00" from="378" to="394" type="car" />
    <trip id="605_1" depart="61183.00" from="578" to="229" type="car" />
    <trip id="1348_1" depart="61188.00" from="237" to="611" type="car" />
    <trip id="751_1" depart="61193.00" from="584" to="4" type="car" />
    <trip id="879_1" depart="61199.00" from="363" to="348" type="car" />
    <trip id="1515_1" depart="61206.00" from="450" to="246" type="car" />
    <trip id="806_1" depart="61239.00" from="378" to="323" type="car" />
    <trip id="1411_1" depart="61244.00" from="452" to="75" type="car" />
    <trip id="269_1" depart="61256.00" from="604" to="606" type="car" />
    <trip id="1793_1" depart="61258.00" from="211" to="116" type="car" />
    <trip id="491_1" depart="61261.00" from="49" to="126" type="car" />
    <trip id="446_1" depart="61274.00" from="369" to="465" type="car" />
    <trip id="1650_1" depart="61276.00" from="29" to="71" type="car" />
    <trip id="982_1" depart="61279.00" from="505" to="568" type="car" />
    <trip id="437_1" depart="61284.00" from="27" to="522" type="car" />
    <trip id="1817_1" depart="61286.00" from="390" to="396" type="car" />
    <trip id="1132_1" depart="61292.00" from="256" to="219" type="car" />
    <trip id="1993_1" depart="61296.00" from="46" to="498" type="car" />
    <trip id="1052_1" depart="61299.00" from="342" to="380" type="car" />
    <trip id="1671_1" depart="61304.00" from="385" to="477" type="car" />
    <trip id="755_1" depart="61309.00" from="579" to="446" type="car" />
    <trip id="112_1" depart="61329.00" from="451" to="23" type="car" />
    <trip id="1672_1" depart="61338.00" from="567" to="519" type="car" />
    <trip id="1008_1" depart="61353.00" from="244" to="165" type="car" />
    <trip id="399_1" depart="61370.00" from="195" to="242" type="car" />
    <trip id="1334_1" depart="61371.00" from="441" to="348" type="car" />
    <trip id="1385_1" depart="61381.00" from="582" to="169" type="car" />
    <trip id="566_1" depart="61381.00" from="169" to="108" type="car" />
    <trip id="78_1" depart="61383.00" from="526" to="397" type="car" />
    <trip id="1951_1" depart="61401.00" from="256" to="595" type="car" />
    <trip id="1866_1" depart="61413.00" from="198" to="111" type="car" />
    <trip id="693_1" depart="61420.00" from="408" to="443" type="car" />
    <trip id="1571_1" depart="61434.00" from="326" to="545" type="car" />
    <trip id="906_1" depart="61435.00" from="365" to="472" type="car" />
    <trip id="426_1" depart="61442.00" from="278" to="309" type="car" />
    <trip id="894_1" depart="61463.00" from="154" to="137" type="car" />
    <trip id="314_1" depart="61468.00" from="295" to="480" type="car" />
    <trip id="1065_1" depart="61511.00" from="182" to="61" type="car" />
    <trip id="369_1" depart="61522.00" from="282" to="307" type="car" />
    <trip id="195_1" depart="61531.00" from="330" to="51" type="car" />
    <trip id="1756_1" depart="61543.00" from="307" to="296" type="car" />
    <trip id="1041_1" depart="61545.00" from="438" to="302" type="car" />
    <trip id="1652_1" depart="61546.00" from="623" to="467" type="car" />
    <trip id="1247_1" depart="61552.00" from="285" to="453" type="car" />
    <trip id="471_1" depart="61575.00" from="135" to="550" type="car" />
    <trip id="1946_1" depart="61576.00" from="382" to="88" type="car" />
    <trip id="18_1" depart="61590.00" from="627" to="242" type="car" />
    <trip id="958_1" depart="61595.00" from="596" to="192" type="car" />
    <trip id="461_1" depart="61600.00" from="575" to="109" type="car" />
    <trip id="1379_1" depart="61604.00" from="191" to="592" type="car" />
    <trip id="1609_1" depart="61606.00" from="533" to="384" type="car" />
    <trip id="69_1" depart="61606.00" from="23" to="90" type="car" />
    <trip id="223_1" depart="61624.00" from="197" to="616" type="car" />
    <trip id="379_1" depart="61625.00" from="253" to="499" type="car" />
    <trip id="1518_1" depart="61627.00" from="162" to="512" type="car" />
    <trip id="1252_1" depart="61631.00" from="212" to="446" type="car" />
    <trip id="1488_1" depart="61631.00" from="615" to="578" type="car" />
    <trip id="100_1" depart="61632.00" from="132" to="526" type="car" />
    <trip id="1015_1" depart="61656.00" from="429" to="9" type="car" />
    <trip id="1047_1" depart="61666.00" from="265" to="10" type="car" />
    <trip id="909_1" depart="61667.00" from="583" to="49" type="car" />
    <trip id="1735_1" depart="61679.00" from="287" to="384" type="car" />
    <trip id="257_1" depart="61680.00" from="122" to="258" type="car" />
    <trip id="91_1" depart="61692.00" from="169" to="224" type="car" />
    <trip id="530_1" depart="61699.00" from="186" to="282" type="car" />
    <trip id="466_1" depart="61705.00" from="482" to="97" type="car" />
    <trip id="1675_1" depart="61712.00" from="355" to="557" type="car" />
    <trip id="843_1" depart="61712.00" from="400" to="75" type="car" />
    <trip id="1985_1" depart="61716.00" from="78" to="2" type="car" />
    <trip id="125_1" depart="61718.00" from="294" to="177" type="car" />
    <trip id="1346_1" depart="61736.00" from="183" to="60" type="car" />
    <trip id="1748_1" depart="61744.00" from="409" to="111" type="car" />
    <trip id="190_1" depart="61744.00" from="224" to="623" type="car" />
    <trip id="574_1" depart="61746.00" from="175" to="394" type="car" />
    <trip id="887_1" depart="61753.00" from="404" to="187" type="car" />
    <trip id="1656_1" depart="61757.00" from="624" to="167" type="car" />
    <trip id="739_1" depart="61760.00" from="390" to="243" type="car" />
    <trip id="1025_1" depart="61765.00" from="131" to="211" type="car" />
    <trip id="1245_1" depart="61765.00" from="498" to="333" type="car" />
    <trip id="1537_1" depart="61767.00" from="267" to="217" type="car" />
    <trip id="1382_1" depart="61770.00" from="605" to="139" type="car" />
    <trip id="1823_1" depart="61779.00" from="124" to="130" type="car" />
    <trip id="106_1" depart="61781.00" from="520" to="397" type="car" />
    <trip id="1840_1" depart="61782.00" from="255" to="185" type="car" />
    <trip id="1162_1" depart="61784.00" from="285" to="144" type="car" />
    <trip id="611_1" depart="61802.00" from="472" to="458" type="car" />
    <trip id="1353_1" depart="61803.00" from="312" to="154" type="car" />
    <trip id="64_1" depart="61806.00" from="485" to="275" type="car" />
    <trip id="1107_1" depart="61814.00" from="194" to="503" type="car" />
    <trip id="830_1" depart="61819.00" from="221" to="598" type="car" />
    <trip id="123_1" depart="61820.00" from="89" to="206" type="car" />
    <trip id="1741_1" depart="61823.00" from="266" to="556" type="car" />
    <trip id="490_1" depart="61830.00" from="614" to="11" type="car" />
    <trip id="1692_1" depart="61837.00" from="222" to="395" type="car" />
    <trip id="1060_1" depart="61856.00" from="588" to="604" type="car" />
    <trip id="1608_1" depart="61879.00" from="294" to="464" type="car" />
    <trip id="722_1" depart="61883.00" from="424" to="459" type="car" />
    <trip id="1365_1" depart="61909.00" from="570" to="245" type="car" />
    <trip id="1888_1" depart="61912.00" from="118" to="116" type="car" />
    <trip id="1992_1" depart="61915.00" from="601" to="141" type="car" />