<routes xmlns:xsi="http://www.w3.org/2001/XMLSchema-instance" xsi:noNamespaceSchemaLocation="http://sumo.dlr.de/xsd/routes_file.xsd">
    <trip id="343_1" depart="54581.00" from="605" to="613" type="car" />
    <trip id="203_1" depart="55472.00" from="250" to="62" type="car" />
    <trip id="265_1" depart="56104.00" from="266" to="330" type="car" />
    <trip id="248_1" depart="56303.00" from="372" to="254" type="car" />
    <trip id="171_1" depart="56675.00" from="524" to="485" type="car" />
    <trip id="492_1" depart="56678.00" from="214" to="263" type="car" />
    <trip id="69_1" depart="56829.00" from="23" to="90" type="car" />
    <trip id="247_1" depart="56861.00" from="230" to="89" type="car" />
    <trip id="404_1" depart="56864.00" from="154" to="458" type="car" />
    <trip id="267_1" depart="56979.00" from="197" to="106" type="car" />
    <trip id="246_1" depart="56990.00" from="385" to="588" type="car" />
    <trip id="182_1" depart="57074.00" from="503" to="116" type="car" />
    <trip id="271_1" depart="57442.00" from="80" to="165" type="car" />
    <trip id="385_1" depart="57572.00" from="510" to="77" type="car" />
    <trip id="396_1" depart="57622.00" from="484" to="544" type="car" />
    <trip id="410_1" depart="57643.00" from="541" to="107" type="car" />
    <trip id="6_1" depart="57669.00" from="213" to="503" type="car" />
    <trip id="295_1" depart="57731.00" from="448" to="164" type="car" />
    <trip id="446_1" depart="57748.00" from="369" to="465" type="car" />
    <trip id="422_1" depart="58005.00" from="134" to="209" type="car" />
    <trip id="433_1" depart="58099.00" from="139" to="333" type="car" />
    <trip id="175_1" depart="58210.00" from="466" to="521" type="car" />
    <trip id="27_1" depart="58228.00" from="523" to="338" type="car" />
    <trip id="251_1" depart="58351.00" from="377" to="185" type="car" />
    <trip id="297_1" depart="58480.00" from="629" to="119" type="car" />
    <trip id="424_1" depart="58633.00" from="575" to="479" type="car" />
    <trip id="418_1" depart="58746.00" from="12" to="86" type="car" />
    <trip id="19_1" depart="58769.00" from="227" to="442" type="car" />
    <trip id="66_1" depart="58784.00" from="352" to="265" type="car" />
    <trip id="201_1" depart="58909.00" from="495" to="601" type="car" />
    <trip id="451_1" depart="59012.00" from="616" to="126" type="car" />
    <trip id="113_1" depart="59019.00" from="346" to="607" type="car" />
    <trip id="456_1" depart="59156.00" from="390" to="143" type="car" />
    <trip id="44_1" depart="59206.00" from="164" to="241" type="car" />
    <trip id="21_1" depart="59230.00" from="237" to="161" type="car" />
    <trip id="429_1" depart="59238.00" from="443" to="376" type="car" />
    <trip id="205_1" depart="59242.00" from="179" to="188" type="car" />
    <trip id="112_1" depart="59297.00" from="451" to="23" type="car" />
    <trip id="423_1" depart="59422.00" from="445" to="260" type="car" />
    <trip id="474_1" depart="59473.00" from="182" to="87" type="car" />
    <trip id="135_1" depart="59507.00" from="429" to="439" type="car" />
    <trip id="331_1" depart="59532.00" from="568" to="212" type="car" />
    <trip id="464_1" depart="59706.00" from="100" to="516" type="car" />
    <trip id="487_1" depart="59748.00" from="425" to="306" type="car" />
    <trip id="393_1" depart="59829.00" from="134" to="497" type="car" />
    <trip id="301_1" depart="59957.00" from="234" to="183" type="car" />
    <trip id="323_1" depart="59964.00" from="126" to="388" type="car" />
    <trip id="82_1" depart="60003.00" from="226" to="206" type="car" />
    <trip id="81_1" depart="60016.00" from="399" to="442" type="car" />
    <trip id="440_1" depart="60025.00" from="4" to="570" type="car" />
    <trip id="102_1" depart="60079.00" from="24" to="421" type="car" />
    <trip id="279_1" depart="60100.00" from="549" to="397" type="car" />
    <trip id="327_1" depart="60147.00" from="545" to="535" type="car" />
    <trip id="250_1" depart="60208.00" from="538" to="345" type="car" />
    <trip id="179_1" depart="60224.00" from="48" to="208" type="car" />
    <trip id="189_1" depart="60263.00" from="200" to="541" type="car" />
    <trip id="371_1" depart="60313.00" from="3" to="387" type="car" />
    <trip id="15_1" depart="60415.00" from="283" to="549" type="car" />
    <trip id="304_1" depart="60462.00" from="592" to="326" type="car" />
    <trip id="138_1" depart="60465.00" from="608" to="133" type="car" />
    <trip id="42_1" depart="60471.00" from="218" to="256" type="car" />
    <trip id="360_1" depart="60500.00" from="540" to="412" type="car" />
    <trip id="230_1" depart="60511.00" from="598" to="405" type="car" />
    <trip id="26_1" depart="60536.00" from="208" to="500" type="car" />
    <trip id="216_1" depart="60569.00" from="221" to="131" type="car" />
    <trip id="419_1" depart="60588.00" from="434" to="583" type="car" />
    <trip id="311_1" depart="60602.00" from="2" to="280" type="car" />
    <trip id="91_1" depart="60639.00" from="169" to="224" type="car" />
    <trip id="101_1" depart="60659.00" from="304" to="269" type="car" />
    <trip id="434_1" depart="60692.00" from="215" to="350" type="car" />
    <trip id="460_1" depart="60775.00" from="183" to="398" type="car" />
    <trip id="435_1" depart="60860.00" from="402" to="199" type="car" />
    <trip id="493_1" depart="60869.00" from="466" to="374" type="car" />
    <trip id="315_1" depart="60906.00" from="351" to="76" type="car" />
    <trip id="392_1" depart="60958.00" from="575" to="536" type="car" />
    <trip id="425_1" depart="60999.00" from="162" to="138" type="car" />
    <trip id="56_1" depart="61044.00" from="185" to="273" type="car" />
    <trip id="214_1" depart="61086.00" from="501" to="514" type="car" />
    <trip id="107_1" depart="61106.00" from="286" to="471" type="car" />
    <trip id="213_1" depart="61110.00" from="458" to="370" type="car" />
    <trip id="430_1" depart="61134.00" from="607" to="66" type="car" />
    <trip id="357_1" depart="61154.00" from="235" to="613" type="car" />
    <trip id="486_1" depart="61160.00" from="625" to="195" type="car" />
    <trip id="166_1" depart="61181.00" from="494" to="132" type="car" />
    <trip id="161_1" depart="61193.00" from="626" to="245" type="car" />
    <trip id="342_1" depart="61194.00" from="327" to="524" type="car" />
    <trip id="45_1" depart="61200.00" from="329" to="468" type="car" />
    <trip id="147_1" depart="61204.00" from="213" to="547" type="car" />
    <trip id="74_1" depart="61227.00" from="60" to="291" type="car" />
    <trip id="384_1" depart="61232.00" from="298" to="78" type="car" />
    <trip id="198_1" depart="61327.00" from="133" to="279" type="car" />
    <trip id="469_1" depart="61356.00" from="214" to="76" type="car" />
    <trip id="92_1" depart="61406.00" from="276" to="453" type="car" />
    <trip id="388_1" depart="61413.00" from="281" to="323" type="car" />
    <trip id="262_1" depart="61422.00" from="101" to="212" type="car" />
    <trip id="9_1" depart="61456.00" from="200" to="495" type="car" />
<trip id="332_1" depart="61496.00" from="217" to="449" type="car" />
    <trip id="78_1" depart="61506.00" from="526" to="397" type="car" />
    <trip id="118_1" depart="61522.00" from="169" to="249" type="car" />
    <trip id="72_1" depart="61535.00" from="192" to="570" type="car" />
    <trip id="156_1" depart="61602.00" from="146" to="102" type="car" />
    <trip id="98_1" depart="61609.00" from="432" to="607" type="car" />
    <trip id="249_1" depart="61673.00" from="68" to="32" type="car" />
    <trip id="448_1" depart="61708.00" from="389" to="68" type="car" />
    <trip id="34_1" depart="61716.00" from="504" to="465" type="car" />
    <trip id="340_1" depart="61763.00" from="11" to="359" type="car" />
    <trip id="109_1" depart="61794.00" from="307" to="420" type="car" />
    <trip id="46_1" depart="61830.00" from="621" to="523" type="car" />
    <trip id="287_1" depart="61844.00" from="494" to="623" type="car" />
    <trip id="88_1" depart="61881.00" from="590" to="449" type="car" />
    <trip id="43_1" depart="61890.00" from="359" to="24" type="car" />
    <trip id="325_1" depart="61902.00" from="555" to="17" type="car" />
    <trip id="100_1" depart="61906.00" from="132" to="526" type="car" />
    <trip id="368_1" depart="61913.00" from="348" to="123" type="car" />
    <trip id="319_1" depart="61968.00" from="578" to="459" type="car" />
    <trip id="415_1" depart="62009.00" from="28" to="87" type="car" />
    <trip id="115_1" depart="62083.00" from="182" to="110" type="car" />
    <trip id="431_1" depart="62143.00" from="212" to="101" type="car" />
    <trip id="68_1" depart="62162.00" from="596" to="222" type="car" />
    <trip id="485_1" depart="62182.00" from="547" to="7" type="car" />
    <trip id="366_1" depart="62204.00" from="9" to="513" type="car" />
    <trip id="476_1" depart="62208.00" from="310" to="462" type="car" />
    <trip id="380_1" depart="62212.00" from="184" to="398" type="car" />
    <trip id="254_1" depart="62299.00" from="601" to="183" type="car" />
    <trip id="387_1" depart="62309.00" from="154" to="605" type="car" />
    <trip id="473_1" depart="62322.00" from="537" to="556" type="car" />
    <trip id="237_1" depart="62362.00" from="404" to="48" type="car" />
    <trip id="283_1" depart="62372.00" from="422" to="27" type="car" />
    <trip id="20_1" depart="62375.00" from="81" to="325" type="car" />
    <trip id="23_1" depart="62397.00" from="610" to="340" type="car" />
    <trip id="58_1" depart="62440.00" from="447" to="352" type="car" />
    <trip id="281_1" depart="62448.00" from="549" to="626" type="car" />
    <trip id="17_1" depart="62476.00" from="78" to="404" type="car" />
    <trip id="154_1" depart="62614.00" from="625" to="136" type="car" />
    <trip id="253_1" depart="62664.00" from="405" to="290" type="car" />
    <trip id="242_1" depart="62666.00" from="452" to="620" type="car" />
    <trip id="244_1" depart="62675.00" from="274" to="356" type="car" />
    <trip id="3_1" depart="62680.00" from="163" to="445" type="car" />
    <trip id="127_1" depart="62737.00" from="594" to="363" type="car" />
    <trip id="449_1" depart="62771.00" from="401" to="143" type="car" />
    <trip id="22_1" depart="62795.00" from="99" to="437" type="car" />
    <trip id="310_1" depart="62816.00" from="381" to="514" type="car" />
    <trip id="141_1" depart="62831.00" from="288" to="408" type="car" />
    <trip id="167_1" depart="62853.00" from="569" to="23" type="car" />
    <trip id="326_1" depart="62882.00" from="114" to="221" type="car" />
    <trip id="86_1" depart="62883.00" from="196" to="426" type="car" />
    <trip id="447_1" depart="62894.00" from="474" to="442" type="car" />
    <trip id="114_1" depart="62924.00" from="140" to="527" type="car" />
    <trip id="236_1" depart="62962.00" from="375" to="103" type="car" />
    <trip id="124_1" depart="62973.00" from="148" to="479" type="car" />
    <trip id="499_1" depart="63010.00" from="87" to="81" type="car" />
    <trip id="13_1" depart="63037.00" from="276" to="192" type="car" />
    <trip id="389_1" depart="63089.00" from="398" to="593" type="car" />
    <trip id="438_1" depart="63093.00" from="556" to="441" type="car" />
    <trip id="365_1" depart="63136.00" from="32" to="53" type="car" />
    <trip id="12_1" depart="63137.00" from="209" to="345" type="car" />
    <trip id="292_1" depart="63215.00" from="2" to="183" type="car" />
    <trip id="346_1" depart="63233.00" from="351" to="92" type="car" />
    <trip id="25_1" depart="63290.00" from="435" to="279" type="car" />
    <trip id="103_1" depart="63301.00" from="162" to="573" type="car" />
    <trip id="67_1" depart="63307.00" from="340" to="613" type="car" />
    <trip id="90_1" depart="63312.00" from="621" to="257" type="car" />
    <trip id="221_1" depart="63326.00" from="436" to="116" type="car" />
    <trip id="260_1" depart="63326.00" from="565" to="85" type="car" />
    <trip id="417_1" depart="63370.00" from="377" to="130" type="car" />
    <trip id="87_1" depart="63376.00" from="598" to="407" type="car" />
    <trip id="395_1" depart="63390.00" from="162" to="200" type="car" />
    <trip id="345_1" depart="63402.00" from="604" to="26" type="car" />
    <trip id="162_1" depart="63410.00" from="9" to="362" type="car" />
    <trip id="190_1" depart="63432.00" from="224" to="623" type="car" />
    <trip id="168_1" depart="63447.00" from="101" to="420" type="car" />
    <trip id="318_1" depart="63469.00" from="140" to="222" type="car" />
    <trip id="170_1" depart="63493.00" from="461" to="517" type="car" />
    <trip id="411_1" depart="63554.00" from="613" to="446" type="car" />
    <trip id="344_1" depart="63561.00" from="21" to="424" type="car" />
    <trip id="416_1" depart="63572.00" from="374" to="595" type="car" />
    <trip id="121_1" depart="63583.00" from="246" to="404" type="car" />
    <trip id="215_1" depart="63594.00" from="286" to="473" type="car" />
    <trip id="445_1" depart="63604.00" from="91" to="18" type="car" />
    <trip id="290_1" depart="63624.00" from="454" to="374" type="car" />
    <trip id="364_1" depart="63655.00" from="610" to="468" type="car" />
    <trip id="117_1" depart="63669.00" from="75" to="158" type="car" />
    <trip id="150_1" depart="63675.00" from="444" to="439" type="car" />
    <trip id="240_1" depart="63676.00" from="627" to="483" type="car" />
    <trip id="420_1" depart="63682.00" from="402" to="435" type="car" />
    <trip id="130_1" depart="63683.00" from="176" to="267" type="car" />
    <trip id="308_1" depart="63714.00" from="527" to="598" type="car" />
    <trip id="99_1" depart="63796.00" from="283" to="449" type="car" />
    <trip id="355_1" depart="63806.00" from="14" to="27" type="car" />
    <trip id="455_1" depart="63807.00" from="25" to="118" type="car" />
    <trip id="496_1" depart="63839.00" from="506" to="572" type="car" />
    <trip id="61_1" depart="63865.00" from="31" to="471" type="car" />
    <trip id="155_1" depart="63900.00" from="79" to="301" type="car" />
    <trip id="212_1" depart="63945.00" from="198" to="14" type="car" />
    <trip id="453_1" depart="63949.00" from="425" to="581" type="car" />
    <trip id="153_1" depart="64014.00" from="191" to="612" type="car" />
    <trip id="294_1" depart="64014.00" from="522" to="198" type="car" />
    <trip id="8_1" depart="64056.00" from="12" to="224" type="car" />
    <trip id="439_1" depart="64079.00" from="275" to="383" type="car" />
    <trip id="234_1" depart="64140.00" from="256" to="236" type="car" />
    <trip id="454_1" depart="64143.00" from="580" to="423" type="car" />
    <trip id="18_1" depart="64200.00" from="627" to="242" type="car" />
    <trip id="362_1" depart="64208.00" from="76" to="442" type="car" />
    <trip id="105_1" depart="64227.00" from="133" to="596" type="car" />
    <trip id="280_1" depart="64233.00" from="526" to="384" type="car" />
    <trip id="84_1" depart="64270.00" from="47" to="534" type="car" />
    <trip id="144_1" depart="64299.00" from="59" to="193" type="car" />
    <trip id="173_1" depart="64299.00" from="438" to="13" type="car" />
    <trip id="123_1" depart="64387.00" from="89" to="206" type="car" />
    <trip id="76_1" depart="64387.00" from="310" to="144" type="car" />
    <trip id="458_1" depart="64391.00" from="452" to="517" type="car" />
    <trip id="119_1" depart="64397.00" from="522" to="385" type="car" />
    <trip id="386_1" depart="64426.00" from="196" to="469" type="car" />
    <trip id="83_1" depart="64427.00" from="205" to="64" type="car" />
    <trip id="277_1" depart="64435.00" from="552" to="253" type="car" />
    <trip id="461_1" depart="64455.00" from="575" to="109" type="car" />
    <trip id="63_1" depart="64470.00" from="382" to="324" type="car" />
    <trip id="391_1" depart="64485.00" from="432" to="157" type="car" />
    <trip id="412_1" depart="64490.00" from="195" to="522" type="car" />
    <trip id="339_1" depart="64498.00" from="629" to="367" type="car" />
    <trip id="241_1" depart="64525.00" from="563" to="85" type="car" />
    <trip id="137_1" depart="64532.00" from="53" to="434" type="car" />
    <trip id="394_1" depart="64538.00" from="471" to="159" type="car" />
    <trip id="379_1" depart="64541.00" from="253" to="499" type="car" />
    <trip id="261_1" depart="64549.00" from="231" to="18" type="car" />
    <trip id="329_1" depart="64564.00" from="250" to="466" type="car" />
    <trip id="193_1" depart="64580.00" from="89" to="587" type="car" />
    <trip id="233_1" depart="64628.00" from="7" to="413" type="car" />
    <trip id="437_1" depart="64629.00" from="27" to="522" type="car" />
    <trip id="80_1" depart="64641.00" from="221" to="605" type="car" />
    <trip id="406_1" depart="64644.00" from="135" to="562" type="car" />
    <trip id="245_1" depart="64657.00" from="138" to="117" type="car" />
    <trip id="316_1" depart="64660.00" from="407" to="330" type="car" />
    <trip id="452_1" depart="64696.00" from="463" to="364" type="car" />
    <trip id="172_1" depart="64706.00" from="445" to="382" type="car" />
    <trip id="309_1" depart="64707.00" from="594" to="538" type="car" />
    <trip id="383_1" depart="64716.00" from="1" to="516" type="car" />
    <trip id="180_1" depart="64722.00" from="90" to="401" type="car" />
    <trip id="312_1" depart="64739.00" from="135" to="4" type="car" />
    <trip id="116_1" depart="64765.00" from="381" to="179" type="car" />
    <trip id="296_1" depart="64765.00" from="229" to="375" type="car" />
    <trip id="291_1" depart="64770.00" from="380" to="14" type="car" />
    <trip id="471_1" depart="64778.00" from="135" to="550" type="car" />
    <trip id="187_1" depart="64779.00" from="546" to="407" type="car" />
    <trip id="37_1" depart="64789.00" from="213" to="522" type="car" />
    <trip id="302_1" depart="64850.00" from="359" to="297" type="car" />
    <trip id="0_1" depart="64856.00" from="620" to="582" type="car" />
    <trip id="48_1" depart="64857.00" from="175" to="333" type="car" />
    <trip id="196_1" depart="64868.00" from="485" to="190" type="car" />
    <trip id="188_1" depart="64891.00" from="373" to="189" type="car" />
    <trip id="270_1" depart="64917.00" from="190" to="100" type="car" />
    <trip id="269_1" depart="64921.00" from="604" to="606" type="car" />
    <trip id="477_1" depart="64939.00" from="18" to="541" type="car" />
    <trip id="104_1" depart="64953.00" from="91" to="109" type="car" />
    <trip id="38_1" depart="64968.00" from="511" to="179" type="car" />
    <trip id="191_1" depart="64998.00" from="128" to="601" type="car" />
    <trip id="382_1" depart="65008.00" from="498" to="275" type="car" />
    <trip id="33_1" depart="65019.00" from="473" to="2" type="car" />
    <trip id="52_1" depart="65039.00" from="63" to="352" type="car" />
    <trip id="128_1" depart="65058.00" from="258" to="388" type="car" />
    <trip id="71_1" depart="65058.00" from="457" to="247" type="car" />
    <trip id="243_1" depart="65100.00" from="622" to="165" type="car" />
    <trip id="51_1" depart="65134.00" from="394" to="477" type="car" />
    <trip id="96_1" depart="65166.00" from="541" to="52" type="car" />
    <trip id="200_1" depart="65172.00" from="465" to="32" type="car" />
    <trip id="134_1" depart="65185.00" from="5" to="613" type="car" />
    <trip id="225_1" depart="65208.00" from="373" to="397" type="car" />
    <trip id="142_1" depart="65221.00" from="270" to="626" type="car" />
    <trip id="28_1" depart="65247.00" from="211" to="272" type="car" />
    <trip id="354_1" depart="65299.00" from="85" to="473" type="car" />
    <trip id="10_1" depart="65305.00" from="197" to="151" type="car" />
    <trip id="478_1" depart="65328.00" from="279" to="427" type="car" />
    <trip id="273_1" depart="65344.00" from="563" to="104" type="car" />
    <trip id="426_1" depart="65434.00" from="278" to="309" type="car" />
    <trip id="152_1" depart="65454.00" from="605" to="67" type="car" />
    <trip id="428_1" depart="65456.00" from="613" to="136" type="car" />
    <trip id="470_1" depart="65498.00" from="566" to="582" type="car" />
    <trip id="257_1" depart="65502.00" from="122" to="258" type="car" />
    <trip id="139_1" depart="65506.00" from="139" to="162" type="car" />
    <trip id="136_1" depart="65507.00" from="173" to="296" type="car" />
    <trip id="41_1" depart="65511.00" from="242" to="66" type="car" />
    <trip id="408_1" depart="65537.00" from="174" to="576" type="car" />
    <trip id="285_1" depart="65539.00" from="155" to="203" type="car" />
    <trip id="224_1" depart="65560.00" from="276" to="562" type="car" />
    <trip id="54_1" depart="65564.00" from="213" to="5" type="car" />
    <trip id="498_1" depart="65607.00" from="347" to="428" type="car" />
    <trip id="1_1" depart="65618.00" from="578" to="19" type="car" />
    <trip id="106_1" depart="65656.00" from="520" to="397" type="car" />
    <trip id="298_1" depart="65668.00" from="125" to="614" type="car" />
    <trip id="24_1" depart="65704.00" from="342" to="433" type="car" />
    <trip id="211_1" depart="65706.00" from="396" to="251" type="car" />
    <trip id="472_1" depart="65709.00" from="272" to="581" type="car" />
    <trip id="378_1" depart="65738.00" from="281" to="408" type="car" />
    <trip id="397_1" depart="65739.00" from="283" to="193" type="car" />
    <trip id="110_1" depart="65750.00" from="129" to="344" type="car" />
    <trip id="202_1" depart="65786.00" from="114" to="304" type="car" />
    <trip id="70_1" depart="65830.00" from="159" to="348" type="car" />
    <trip id="407_1" depart="65832.00" from="185" to="310" type="car" />
    <trip id="108_1" depart="65833.00" from="93" to="381" type="car" />
    <trip id="307_1" depart="65837.00" from="506" to="47" type="car" />
    <trip id="441_1" depart="65838.00" from="398" to="521" type="car" />
    <trip id="405_1" depart="65867.00" from="1" to="615" type="car" />
    <trip id="238_1" depart="65887.00" from="618" to="413" type="car" />
    <trip id="35_1" depart="65888.00" from="370" to="23" type="car" />
    <trip id="400_1" depart="65904.00" from="521" to="403" type="car" />
    <trip id="184_1" depart="65906.00" from="298" to="599" type="car" />
    <trip id="462_1" depart="65931.00" from="153" to="100" type="car" />
    <trip id="463_1" depart="65956.00" from="117" to="114" type="car" />
    <trip id="414_1" depart="65967.00" from="112" to="425" type="car" />
    <trip id="450_1" depart="65972.00" from="621" to="513" type="car" />
    <trip id="16_1" depart="66016.00" from="351" to="206" type="car" />
    <trip id="275_1" depart="66033.00" from="139" to="546" type="car" />
    <trip id="375_1" depart="66060.00" from="583" to="161" type="car" />
    <trip id="266_1" depart="66072.00" from="511" to="30" type="car" />
    <trip id="29_1" depart="66074.00" from="579" to="138" type="car" />
    <trip id="398_1" depart="66082.00" from="620" to="465" type="car" />
    <trip id="356_1" depart="66095.00" from="542" to="437" type="car" />
    <trip id="164_1" depart="66106.00" from="143" to="311" type="car" />
    <trip id="77_1" depart="66118.00" from="382" to="50" type="car" />
    <trip id="274_1" depart="66124.00" from="476" to="198" type="car" />
    <trip id="210_1" depart="66128.00" from="50" to="216" type="car" />
    <trip id="457_1" depart="66141.00" from="492" to="604" type="car" />
    <trip id="255_1" depart="66174.00" from="57" to="280" type="car" />
    <trip id="60_1" depart="66193.00" from="562" to="270" type="car" />
    <trip id="491_1" depart="66224.00" from="49" to="126" type="car" />
    <trip id="321_1" depart="66234.00" from="78" to="556" type="car" />
    <trip id="151_1" depart="66264.00" from="548" to="546" type="car" />
    <trip id="264_1" depart="66331.00" from="592" to="245" type="car" />
    <trip id="268_1" depart="66370.00" from="621" to="340" type="car" />
    <trip id="165_1" depart="66383.00" from="352" to="596" type="car" />
    <trip id="314_1" depart="66393.00" from="295" to="480" type="car" />
    <trip id="374_1" depart="66395.00" from="608" to="484" type="car" />
    <trip id="111_1" depart="66399.00" from="285" to="396" type="car" />
    <trip id="376_1" depart="66439.00" from="540" to="126" type="car" />
    <trip id="49_1" depart="66447.00" from="250" to="543" type="car" />
    <trip id="222_1" depart="66483.00" from="265" to="372" type="car" />
    <trip id="317_1" depart="66500.00" from="532" to="383" type="car" />
    <trip id="350_1" depart="66511.00" from="467" to="534" type="car" />
    <trip id="228_1" depart="66558.00" from="235" to="46" type="car" />
    <trip id="169_1" depart="66580.00" from="566" to="291" type="car" />
    <trip id="300_1" depart="66588.00" from="273" to="311" type="car" />
    <trip id="30_1" depart="66613.00" from="65" to="540" type="car" />
    <trip id="178_1" depart="66629.00" from="401" to="96" type="car" />
    <trip id="235_1" depart="66648.00" from="425" to="452" type="car" />
    <trip id="140_1" depart="66658.00" from="254" to="447" type="car" />
    <trip id="208_1" depart="66743.00" from="174" to="332" type="car" />
    <trip id="335_1" depart="66770.00" from="600" to="435" type="car" />
    <trip id="353_1" depart="66783.00" from="162" to="597" type="car" />
    <trip id="481_1" depart="66788.00" from="604" to="208" type="car" />
    <trip id="122_1" depart="66844.00" from="430" to="482" type="car" />
    <trip id="7_1" depart="66846.00" from="190" to="222" type="car" />
    <trip id="401_1" depart="66851.00" from="27" to="231" type="car" />
    <trip id="50_1" depart="66883.00" from="540" to="309" type="car" />
    <trip id="256_1" depart="66887.00" from="207" to="323" type="car" />
    <trip id="62_1" depart="66906.00" from="185" to="130" type="car" />
    <trip id="195_1" depart="66915.00" from="330" to="51" type="car" />
    <trip id="186_1" depart="66930.00" from="132" to="626" type="car" />
    <trip id="239_1" depart="66943.00" from="81" to="183" type="car" />
    <trip id="494_1" depart="66990.00" from="179" to="421" type="car" />
    <trip id="305_1" depart="67007.00" from="342" to="194" type="car" />
    <trip id="341_1" depart="67009.00" from="301" to="557" type="car" />
    <trip id="129_1" depart="67013.00" from="67" to="22" type="car" />
    <trip id="149_1" depart="67018.00" from="499" to="68" type="car" />
    <trip id="232_1" depart="67023.00" from="15" to="586" type="car" />
    <trip id="358_1" depart="67024.00" from="323" to="167" type="car" />
    <trip id="220_1" depart="67083.00" from="475" to="621" type="car" />
    <trip id="272_1" depart="67161.00" from="123" to="350" type="car" />
    <trip id="403_1" depart="67172.00" from="181" to="174" type="car" />
    <trip id="219_1" depart="67257.00" from="352" to="551" type="car" />
    <trip id="466_1" depart="67277.00" from="482" to="97" type="car" />
    <trip id="442_1" depart="67290.00" from="205" to="539" type="car" />
    <trip id="299_1" depart="67293.00" from="377" to="479" type="car" />
    <trip id="227_1" depart="67365.00" from="352" to="549" type="car" />
    <trip id="85_1" depart="67372.00" from="174" to="10" type="car" />
    <trip id="120_1" depart="67399.00" from="220" to="397" type="car" />
    <trip id="482_1" depart="67429.00" from="623" to="130" type="car" />
    <trip id="126_1" depart="67452.00" from="153" to="611" type="car" />
    <trip id="145_1" depart="67456.00" from="400" to="518" type="car" />
    <trip id="467_1" depart="67463.00" from="25" to="255" type="car" />
    <trip id="489_1" depart="67473.00" from="244" to="98" type="car" />
    <trip id="53_1" depart="67505.00" from="112" to="259" type="car" />
    <trip id="64_1" depart="67543.00" from="485" to="275" type="car" />
    <trip id="337_1" depart="67570.00" from="592" to="355" type="car" />
    <trip id="306_1" depart="67593.00" from="311" to="332" type="car" />
    <trip id="97_1" depart="67618.00" from="189" to="9" type="car" />
    <trip id="369_1" depart="67627.00" from="282" to="307" type="car" />
    <trip id="367_1" depart="67640.00" from="569" to="440" type="car" />
    <trip id="377_1" depart="67676.00" from="232" to="255" type="car" />
    <trip id="146_1" depart="67706.00" from="407" to="363" type="car" />
    <trip id="303_1" depart="67730.00" from="433" to="264" type="car" />
    <trip id="320_1" depart="67860.00" from="612" to="351" type="car" />
    <trip id="160_1" depart="67901.00" from="191" to="431" type="car" />
    <trip id="75_1" depart="67906.00" from="49" to="312" type="car" />
    <trip id="459_1" depart="67943.00" from="223" to="88" type="car" />
    <trip id="204_1" depart="67944.00" from="259" to="31" type="car" />
    <trip id="223_1" depart="67951.00" from="197" to="616" type="car" />
    <trip id="495_1" depart="67994.00" from="106" to="626" type="car" />
    <trip id="322_1" depart="67999.00" from="361" to="546" type="car" />
    <trip id="348_1" depart="68035.00" from="473" to="208" type="car" />
    <trip id="293_1" depart="68053.00" from="325" to="245" type="car" />
    <trip id="390_1" depart="68056.00" from="349" to="625" type="car" />
    <trip id="229_1" depart="68065.00" from="257" to="166" type="car" />
    <trip id="286_1" depart="68086.00" from="525" to="587" type="car" />
    <trip id="399_1" depart="68090.00" from="195" to="242" type="car" />
    <trip id="413_1" depart="68105.00" from="523" to="457" type="car" />
    <trip id="436_1" depart="68120.00" from="441" to="356" type="car" />
    <trip id="31_1" depart="68154.00" from="187" to="353" type="car" />
    <trip id="372_1" depart="68166.00" from="616" to="400" type="car" />
    <trip id="443_1" depart="68168.00" from="236" to="60" type="car" />
    <trip id="484_1" depart="68217.00" from="267" to="542" type="car" />
    <trip id="59_1" depart="68236.00" from="168" to="593" type="car" />
    <trip id="363_1" depart="68244.00" from="454" to="144" type="car" />