<routes xmlns:xsi="http://www.w3.org/2001/XMLSchema-instance" xsi:noNamespaceSchemaLocation="http://sumo.dlr.de/xsd/routes_file.xsd">
    <trip id="1490_1" depart="51925.00" from="611" to="129" type="car" />
    <trip id="2862_1" depart="52218.00" from="451" to="576" type="car" />
    <trip id="3952_1" depart="53169.00" from="371" to="610" type="car" />
    <trip id="2548_1" depart="53220.00" from="254" to="289" type="car" />
    <trip id="4519_1" depart="53963.00" from="123" to="32" type="car" />
    <trip id="195_1" depart="54023.00" from="330" to="51" type="car" />
    <trip id="4409_1" depart="54104.00" from="501" to="123" type="car" />
    <trip id="1203_1" depart="54377.00" from="387" to="301" type="car" />
    <trip id="3337_1" depart="54406.00" from="87" to="202" type="car" />
    <trip id="4723_1" depart="54415.00" from="463" to="387" type="car" />
    <trip id="3377_1" depart="54445.00" from="26" to="275" type="car" />
    <trip id="1370_1" depart="54551.00" from="194" to="327" type="car" />
    <trip id="3511_1" depart="54554.00" from="503" to="97" type="car" />
    <trip id="4288_1" depart="54562.00" from="217" to="218" type="car" />
    <trip id="4333_1" depart="54599.00" from="405" to="249" type="car" />
    <trip id="739_1" depart="54602.00" from="390" to="243" type="car" />
    <trip id="335_1" depart="54673.00" from="600" to="435" type="car" />
    <trip id="1144_1" depart="54831.00" from="438" to="174" type="car" />
    <trip id="3677_1" depart="55063.00" from="122" to="527" type="car" />
    <trip id="3965_1" depart="55064.00" from="422" to="513" type="car" />
    <trip id="99_1" depart="55163.00" from="283" to="449" type="car" />
    <trip id="1022_1" depart="55189.00" from="178" to="405" type="car" />
    <trip id="4844_1" depart="55275.00" from="166" to="581" type="car" />
    <trip id="4622_1" depart="55322.00" from="10" to="288" type="car" />
    <trip id="1946_1" depart="55345.00" from="382" to="88" type="car" />
    <trip id="2881_1" depart="55439.00" from="443" to="450" type="car" />
    <trip id="972_1" depart="55623.00" from="281" to="608" type="car" />
    <trip id="3323_1" depart="55624.00" from="420" to="217" type="car" />
    <trip id="2162_1" depart="55628.00" from="545" to="303" type="car" />
    <trip id="618_1" depart="55695.00" from="177" to="477" type="car" />
    <trip id="2294_1" depart="55724.00" from="113" to="471" type="car" />
    <trip id="2643_1" depart="55738.00" from="566" to="176" type="car" />
    <trip id="746_1" depart="55867.00" from="118" to="80" type="car" />
    <trip id="1273_1" depart="55971.00" from="566" to="461" type="car" />
    <trip id="3663_1" depart="56022.00" from="282" to="304" type="car" />
    <trip id="2123_1" depart="56104.00" from="350" to="216" type="car" />
    <trip id="2865_1" depart="56112.00" from="183" to="108" type="car" />
    <trip id="4125_1" depart="56146.00" from="196" to="620" type="car" />
    <trip id="4072_1" depart="56167.00" from="602" to="482" type="car" />
    <trip id="2192_1" depart="56193.00" from="201" to="16" type="car" />
    <trip id="1963_1" depart="56214.00" from="241" to="403" type="car" />
    <trip id="2998_1" depart="56255.00" from="269" to="267" type="car" />
    <trip id="2622_1" depart="56268.00" from="564" to="494" type="car" />
    <trip id="2696_1" depart="56273.00" from="140" to="458" type="car" />
    <trip id="4103_1" depart="56298.00" from="59" to="272" type="car" />
    <trip id="2485_1" depart="56323.00" from="518" to="530" type="car" />
    <trip id="2441_1" depart="56407.00" from="104" to="237" type="car" />
    <trip id="3272_1" depart="56424.00" from="258" to="97" type="car" />
    <trip id="3079_1" depart="56458.00" from="109" to="134" type="car" />
    <trip id="925_1" depart="56458.00" from="461" to="468" type="car" />
    <trip id="3190_1" depart="56517.00" from="620" to="28" type="car" />
    <trip id="4682_1" depart="56534.00" from="478" to="471" type="car" />
    <trip id="4588_1" depart="56546.00" from="246" to="6" type="car" />
    <trip id="4257_1" depart="56552.00" from="331" to="411" type="car" />
    <trip id="885_1" depart="56575.00" from="564" to="625" type="car" />
    <trip id="222_1" depart="56604.00" from="265" to="372" type="car" />
    <trip id="4058_1" depart="56617.00" from="20" to="120" type="car" />
    <trip id="3043_1" depart="56623.00" from="91" to="481" type="car" />
    <trip id="4500_1" depart="56639.00" from="27" to="50" type="car" />
    <trip id="620_1" depart="56718.00" from="274" to="620" type="car" />
    <trip id="98_1" depart="56725.00" from="432" to="607" type="car" />
    <trip id="3956_1" depart="56735.00" from="544" to="579" type="car" />
    <trip id="4135_1" depart="56746.00" from="229" to="352" type="car" />
    <trip id="2665_1" depart="56760.00" from="12" to="306" type="car" />
    <trip id="2888_1" depart="56767.00" from="272" to="400" type="car" />
    <trip id="3960_1" depart="56774.00" from="23" to="474" type="car" />
    <trip id="4664_1" depart="56775.00" from="465" to="22" type="car" />
    <trip id="1812_1" depart="56801.00" from="530" to="471" type="car" />
    <trip id="427_1" depart="56804.00" from="455" to="598" type="car" />
    <trip id="1656_1" depart="56853.00" from="624" to="167" type="car" />
    <trip id="3458_1" depart="56858.00" from="461" to="65" type="car" />
    <trip id="4879_1" depart="56871.00" from="10" to="160" type="car" />
    <trip id="1892_1" depart="56903.00" from="193" to="160" type="car" />
    <trip id="2921_1" depart="56909.00" from="113" to="530" type="car" />
    <trip id="2541_1" depart="56914.00" from="323" to="141" type="car" />
    <trip id="2924_1" depart="56920.00" from="70" to="355" type="car" />
    <trip id="2456_1" depart="56941.00" from="437" to="102" type="car" />
    <trip id="635_1" depart="57004.00" from="549" to="363" type="car" />
    <trip id="1011_1" depart="57021.00" from="428" to="163" type="car" />
    <trip id="3265_1" depart="57040.00" from="74" to="53" type="car" />
    <trip id="1595_1" depart="57068.00" from="82" to="476" type="car" />
    <trip id="4941_1" depart="57082.00" from="148" to="128" type="car" />
    <trip id="4294_1" depart="57103.00" from="390" to="517" type="car" />
    <trip id="314_1" depart="57104.00" from="295" to="480" type="car" />
    <trip id="718_1" depart="57114.00" from="581" to="372" type="car" />
    <trip id="1667_1" depart="57118.00" from="354" to="285" type="car" />
    <trip id="2182_1" depart="57120.00" from="568" to="105" type="car" />
    <trip id="1919_1" depart="57142.00" from="371" to="592" type="car" />
    <trip id="2906_1" depart="57146.00" from="369" to="496" type="car" />
    <trip id="2990_1" depart="57154.00" from="236" to="102" type="car" />
    <trip id="3595_1" depart="57162.00" from="525" to="146" type="car" />
    <trip id="3630_1" depart="57180.00" from="353" to="594" type="car" />
    <trip id="484_1" depart="57207.00" from="267" to="542" type="car" />
    <trip id="3776_1" depart="57239.00" from="285" to="90" type="car" />
    <trip id="493_1" depart="57249.00" from="466" to="374" type="car" />
    <trip id="3357_1" depart="57260.00" from="270" to="90" type="car" />
    <trip id="1883_1" depart="57274.00" from="117" to="165" type="car" />
    <trip id="1922_1" depart="57291.00" from="232" to="296" type="car" />
    <trip id="2100_1" depart="57295.00" from="556" to="26" type="car" />
    <trip id="3622_1" depart="57301.00" from="197" to="245" type="car" />
    <trip id="281_1" depart="57353.00" from="549" to="626" type="car" />
    <trip id="1291_1" depart="57362.00" from="126" to="522" type="car" />
    <trip id="2110_1" depart="57387.00" from="114" to="369" type="car" />
    <trip id="3689_1" depart="57443.00" from="153" to="251" type="car" />
    <trip id="1453_1" depart="57473.00" from="120" to="583" type="car" />
    <trip id="4400_1" depart="57499.00" from="300" to="84" type="car" />
    <trip id="3587_1" depart="57501.00" from="471" to="280" type="car" />
    <trip id="2825_1" depart="57504.00" from="87" to="164" type="car" />
    <trip id="4524_1" depart="57529.00" from="149" to="599" type="car" />
    <trip id="2837_1" depart="57553.00" from="261" to="61" type="car" />
    <trip id="254_1" depart="57575.00" from="601" to="183" type="car" />
    <trip id="1679_1" depart="57614.00" from="301" to="113" type="car" />
    <trip id="1235_1" depart="57618.00" from="524" to="72" type="car" />
    <trip id="1330_1" depart="57623.00" from="621" to="301" type="car" />
    <trip id="570_1" depart="57657.00" from="565" to="179" type="car" />
    <trip id="1759_1" depart="57665.00" from="324" to="121" type="car" />
    <trip id="146_1" depart="57669.00" from="407" to="363" type="car" />
    <trip id="3706_1" depart="57691.00" from="498" to="377" type="car" />
    <trip id="1178_1" depart="57701.00" from="359" to="625" type="car" />
    <trip id="3546_1" depart="57713.00" from="435" to="442" type="car" />
    <trip id="3532_1" depart="57716.00" from="349" to="91" type="car" />
    <trip id="3964_1" depart="57719.00" from="395" to="303" type="car" />
    <trip id="8_1" depart="57722.00" from="12" to="224" type="car" />
    <trip id="946_1" depart="57723.00" from="278" to="134" type="car" />
    <trip id="4385_1" depart="57740.00" from="235" to="367" type="car" />
    <trip id="4922_1" depart="57742.00" from="259" to="483" type="car" />
    <trip id="449_1" depart="57745.00" from="401" to="143" type="car" />
    <trip id="4614_1" depart="57754.00" from="114" to="544" type="car" />
    <trip id="2836_1" depart="57760.00" from="100" to="469" type="car" />
    <trip id="639_1" depart="57761.00" from="574" to="51" type="car" />
    <trip id="3867_1" depart="57763.00" from="326" to="608" type="car" />
    <trip id="94_1" depart="57763.00" from="169" to="352" type="car" />
    <trip id="159_1" depart="57772.00" from="129" to="421" type="car" />
    <trip id="4292_1" depart="57777.00" from="370" to="576" type="car" />
    <trip id="1842_1" depart="57780.00" from="595" to="60" type="car" />
    <trip id="1079_1" depart="57783.00" from="122" to="55" type="car" />
    <trip id="2536_1" depart="57797.00" from="9" to="405" type="car" />
    <trip id="1249_1" depart="57812.00" from="230" to="567" type="car" />
    <trip id="142_1" depart="57835.00" from="270" to="626" type="car" />
    <trip id="443_1" depart="57844.00" from="236" to="60" type="car" />
    <trip id="3255_1" depart="57845.00" from="283" to="617" type="car" />
    <trip id="402_1" depart="57879.00" from="493" to="452" type="car" />
    <trip id="4805_1" depart="57892.00" from="424" to="53" type="car" />
    <trip id="4875_1" depart="57895.00" from="530" to="426" type="car" />
    <trip id="866_1" depart="57906.00" from="75" to="262" type="car" />
    <trip id="2460_1" depart="57912.00" from="310" to="479" type="car" />
    <trip id="172_1" depart="57926.00" from="445" to="382" type="car" />
    <trip id="419_1" depart="57926.00" from="434" to="583" type="car" />
    <trip id="3866_1" depart="57932.00" from="327" to="359" type="car" />
    <trip id="471_1" depart="57954.00" from="135" to="550" type="car" />
    <trip id="3431_1" depart="57966.00" from="564" to="496" type="car" />
    <trip id="2789_1" depart="57979.00" from="387" to="408" type="car" />
    <trip id="2913_1" depart="57980.00" from="4" to="265" type="car" />
    <trip id="225_1" depart="57992.00" from="373" to="397" type="car" />
    <trip id="4496_1" depart="57993.00" from="575" to="562" type="car" />
    <trip id="202_1" depart="58007.00" from="114" to="304" type="car" />
    <trip id="1677_1" depart="58030.00" from="297" to="282" type="car" />
    <trip id="4111_1" depart="58044.00" from="202" to="626" type="car" />
    <trip id="4715_1" depart="58047.00" from="595" to="326" type="car" />
    <trip id="3792_1" depart="58051.00" from="409" to="50" type="car" />
    <trip id="4602_1" depart="58057.00" from="512" to="216" type="car" />
    <trip id="586_1" depart="58069.00" from="347" to="562" type="car" />
    <trip id="4606_1" depart="58092.00" from="186" to="329" type="car" />
    <trip id="4463_1" depart="58095.00" from="551" to="595" type="car" />
    <trip id="1352_1" depart="58108.00" from="339" to="336" type="car" />
    <trip id="131_1" depart="58113.00" from="493" to="571" type="car" />
    <trip id="1610_1" depart="58121.00" from="160" to="137" type="car" />
    <trip id="2247_1" depart="58125.00" from="87" to="32" type="car" />
    <trip id="1795_1" depart="58148.00" from="284" to="75" type="car" />
    <trip id="2993_1" depart="58156.00" from="571" to="623" type="car" />
    <trip id="2054_1" depart="58175.00" from="510" to="568" type="car" />
    <trip id="3949_1" depart="58192.00" from="6" to="363" type="car" />
    <trip id="4639_1" depart="58203.00" from="241" to="572" type="car" />
    <trip id="907_1" depart="58224.00" from="30" to="370" type="car" />
    <trip id="800_1" depart="58227.00" from="340" to="24" type="car" />
    <trip id="2091_1" depart="58231.00" from="229" to="385" type="car" />
    <trip id="2446_1" depart="58260.00" from="260" to="570" type="car" />
    <trip id="3893_1" depart="58292.00" from="224" to="597" type="car" />
    <trip id="344_1" depart="58309.00" from="21" to="424" type="car" />
    <trip id="2736_1" depart="58329.00" from="297" to="180" type="car" />
    <trip id="1340_1" depart="58335.00" from="261" to="123" type="car" />
    <trip id="1342_1" depart="58345.00" from="275" to="583" type="car" />
    <trip id="36_1" depart="58354.00" from="373" to="140" type="car" />
    <trip id="2351_1" depart="58365.00" from="519" to="520" type="car" />
    <trip id="1997_1" depart="58367.00" from="349" to="63" type="car" />
    <trip id="2819_1" depart="58384.00" from="6" to="140" type="car" />
    <trip id="3608_1" depart="58407.00" from="460" to="362" type="car" />
    <trip id="785_1" depart="58418.00" from="483" to="471" type="car" />
    <trip id="2944_1" depart="58431.00" from="618" to="414" type="car" />
    <trip id="1351_1" depart="58449.00" from="220" to="230" type="car" />
    <trip id="4581_1" depart="58458.00" from="468" to="390" type="car" />
    <trip id="1972_1" depart="58466.00" from="220" to="131" type="car" />
    <trip id="3177_1" depart="58541.00" from="394" to="591" type="car" />
    <trip id="4362_1" depart="58541.00" from="341" to="369" type="car" />
    <trip id="4516_1" depart="58547.00" from="93" to="513" type="car" />
    <trip id="3613_1" depart="58562.00" from="264" to="13" type="car" />
    <trip id="801_1" depart="58580.00" from="542" to="505" type="car" />
    <trip id="4375_1" depart="58594.00" from="237" to="47" type="car" />
    <trip id="697_1" depart="58594.00" from="240" to="157" type="car" />
    <trip id="683_1" depart="58598.00" from="594" to="624" type="car" />
    <trip id="1120_1" depart="58605.00" from="498" to="60" type="car" />
    <trip id="3753_1" depart="58610.00" from="48" to="187" type="car" />
    <trip id="2978_1" depart="58618.00" from="496" to="371" type="car" />
    <trip id="3239_1" depart="58625.00" from="245" to="240" type="car" />
    <trip id="4086_1" depart="58625.00" from="262" to="357" type="car" />
    <trip id="4649_1" depart="58626.00" from="240" to="372" type="car" />
    <trip id="2629_1" depart="58636.00" from="190" to="10" type="car" />
    <trip id="4522_1" depart="58659.00" from="170" to="463" type="car" />
    <trip id="1577_1" depart="58664.00" from="252" to="565" type="car" />
    <trip id="3064_1" depart="58666.00" from="331" to="46" type="car" />
    <trip id="3811_1" depart="58671.00" from="239" to="59" type="car" />
    <trip id="891_1" depart="58682.00" from="563" to="342" type="car" />
    <trip id="1533_1" depart="58686.00" from="359" to="170" type="car" />
    <trip id="750_1" depart="58688.00" from="299" to="57" type="car" />
    <trip id="2693_1" depart="58699.00" from="526" to="90" type="car" />
    <trip id="2871_1" depart="58704.00" from="250" to="210" type="car" />
    <trip id="4303_1" depart="58706.00" from="595" to="111" type="car" />
    <trip id="3453_1" depart="58713.00" from="510" to="573" type="car" />
    <trip id="4225_1" depart="58717.00" from="627" to="100" type="car" />
    <trip id="2207_1" depart="58722.00" from="480" to="526" type="car" />
    <trip id="494_1" depart="58727.00" from="179" to="421" type="car" />
    <trip id="4118_1" depart="58731.00" from="243" to="120" type="car" />
    <trip id="1718_1" depart="58732.00" from="63" to="118" type="car" />
    <trip id="2734_1" depart="58753.00" from="484" to="140" type="car" />
    <trip id="1615_1" depart="58754.00" from="462" to="343" type="car" />
    <trip id="4979_1" depart="58761.00" from="11" to="170" type="car" />
    <trip id="2402_1" depart="58762.00" from="280" to="124" type="car" />
    <trip id="844_1" depart="58775.00" from="568" to="598" type="car" />
    <trip id="3855_1" depart="58780.00" from="383" to="200" type="car" />
    <trip id="3436_1" depart="58792.00" from="289" to="178" type="car" />
    <trip id="2788_1" depart="58796.00" from="447" to="257" type="car" />
    <trip id="584_1" depart="58807.00" from="241" to="538" type="car" />
    <trip id="1228_1" depart="58827.00" from="250" to="181" type="car" />
    <trip id="1760_1" depart="58828.00" from="197" to="384" type="car" />
    <trip id="4956_1" depart="58830.00" from="189" to="478" type="car" />
    <trip id="3616_1" depart="58838.00" from="170" to="378" type="car" />
    <trip id="1800_1" depart="58859.00" from="508" to="620" type="car" />
    <trip id="4440_1" depart="58865.00" from="586" to="531" type="car" />
    <trip id="1333_1" depart="58866.00" from="390" to="522" type="car" />
    <trip id="182_1" depart="58866.00" from="503" to="116" type="car" />
    <trip id="3380_1" depart="58870.00" from="148" to="310" type="car" />
    <trip id="547_1" depart="58888.00" from="448" to="312" type="car" />
    <trip id="3944_1" depart="58895.00" from="102" to="54" type="car" />
    <trip id="3568_1" depart="58897.00" from="226" to="494" type="car" />
    <trip id="1561_1" depart="58901.00" from="51" to="14" type="car" />
    <trip id="1338_1" depart="58903.00" from="476" to="455" type="car" />
    <trip id="130_1" depart="58907.00" from="176" to="267" type="car" />
    <trip id="1509_1" depart="58907.00" from="579" to="166" type="car" />
    <trip id="3379_1" depart="58916.00" from="66" to="161" type="car" />
    <trip id="1099_1" depart="58928.00" from="123" to="251" type="car" />
    <trip id="269_1" depart="58931.00" from="604" to="606" type="car" />
    <trip id="459_1" depart="58968.00" from="223" to="88" type="car" />
    <trip id="2563_1" depart="58984.00" from="349" to="307" type="car" />
    <trip id="2662_1" depart="58988.00" from="127" to="424" type="car" />
    <trip id="243_1" depart="59015.00" from="622" to="165" type="car" />
    <trip id="1731_1" depart="59016.00" from="24" to="149" type="car" />
    <trip id="4224_1" depart="59030.00" from="569" to="526" type="car" />
    <trip id="1871_1" depart="59031.00" from="377" to="121" type="car" />
    <trip id="2131_1" depart="59034.00" from="579" to="84" type="car" />
    <trip id="2931_1" depart="59040.00" from="268" to="101" type="car" />
    <trip id="2767_1" depart="59045.00" from="620" to="66" type="car" />
    <trip id="2707_1" depart="59047.00" from="623" to="80" type="car" />
    <trip id="283_1" depart="59055.00" from="422" to="27" type="car" />
    <trip id="862_1" depart="59059.00" from="571" to="366" type="car" />
    <trip id="4782_1" depart="59061.00" from="454" to="629" type="car" />
    <trip id="1052_1" depart="59067.00" from="342" to="380" type="car" />
    <trip id="4376_1" depart="59076.00" from="572" to="478" type="car" />
    <trip id="398_1" depart="59078.00" from="620" to="465" type="car" />
    <trip id="4427_1" depart="59081.00" from="175" to="114" type="car" />
    <trip id="4261_1" depart="59084.00" from="527" to="89" type="car" />
    <trip id="3966_1" depart="59087.00" from="601" to="203" type="car" />
    <trip id="4807_1" depart="59093.00" from="121" to="208" type="car" />
    <trip id="892_1" depart="59096.00" from="49" to="76" type="car" />
    <trip id="4368_1" depart="59099.00" from="246" to="335" type="car" />
    <trip id="901_1" depart="59100.00" from="382" to="356" type="car" />
    <trip id="3168_1" depart="59106.00" from="404" to="6" type="car" />
    <trip id="3644_1" depart="59110.00" from="374" to="442" type="car" />
    <trip id="1188_1" depart="59128.00" from="62" to="312" type="car" />
    <trip id="2958_1" depart="59128.00" from="261" to="326" type="car" />
    <trip id="2214_1" depart="59129.00" from="162" to="599" type="car" />
    <trip id="2183_1" depart="59135.00" from="350" to="164" type="car" />
    <trip id="1485_1" depart="59151.00" from="137" to="193" type="car" />
    <trip id="1875_1" depart="59152.00" from="455" to="397" type="car" />
    <trip id="2506_1" depart="59163.00" from="233" to="427" type="car" />
    <trip id="1227_1" depart="59166.00" from="379" to="151" type="car" />
    <trip id="1109_1" depart="59182.00" from="95" to="256" type="car" />
    <trip id="671_1" depart="59187.00" from="610" to="539" type="car" />
    <trip id="1111_1" depart="59189.00" from="556" to="67" type="car" />
    <trip id="3583_1" depart="59190.00" from="585" to="170" type="car" />
    <trip id="4662_1" depart="59196.00" from="230" to="356" type="car" />
    <trip id="676_1" depart="59206.00" from="330" to="616" type="car" />
    <trip id="1062_1" depart="59219.00" from="481" to="456" type="car" />
    <trip id="3600_1" depart="59222.00" from="103" to="340" type="car" />
    <trip id="3824_1" depart="59222.00" from="411" to="198" type="car" />
    <trip id="3661_1" depart="59224.00" from="347" to="24" type="car" />
    <trip id="4156_1" depart="59228.00" from="427" to="355" type="car" />
    <trip id="2801_1" depart="59245.00" from="290" to="295" type="car" />
    <trip id="3305_1" depart="59260.00" from="13" to="276" type="car" />
    <trip id="1530_1" depart="59267.00" from="360" to="168" type="car" />
    <trip id="2527_1" depart="59267.00" from="410" to="384" type="car" />
    <trip id="1166_1" depart="59269.00" from="211" to="243" type="car" />
    <trip id="4251_1" depart="59273.00" from="14" to="335" type="car" />
    <trip id="1559_1" depart="59280.00" from="12" to="157" type="car" />
    <trip id="3766_1" depart="59280.00" from="510" to="140" type="car" />
    <trip id="2355_1" depart="59286.00" from="400" to="588" type="car" />
    <trip id="4731_1" depart="59292.00" from="111" to="581" type="car" />
    <trip id="1658_1" depart="59295.00" from="200" to="60" type="car" />
    <trip id="553_1" depart="59304.00" from="285" to="586" type="car" />
    <trip id="4562_1" depart="59313.00" from="16" to="232" type="car" />
    <trip id="528_1" depart="59317.00" from="476" to="231" type="car" />
    <trip id="4025_1" depart="59318.00" from="400" to="103" type="car" />
    <trip id="3646_1" depart="59322.00" from="275" to="341" type="car" />
    <trip id="4078_1" depart="59327.00" from="297" to="299" type="car" />
    <trip id="3193_1" depart="59334.00" from="439" to="430" type="car" />
    <trip id="1627_1" depart="59339.00" from="513" to="323" type="car" />
    <trip id="609_1" depart="59340.00" from="624" to="285" type="car" />
    <trip id="405_1" depart="59363.00" from="1" to="615" type="car" />
    <trip id="3986_1" depart="59364.00" from="192" to="475" type="car" />
    <trip id="1662_1" depart="59366.00" from="139" to="523" type="car" />
    <trip id="4545_1" depart="59369.00" from="617" to="198" type="car" />
    <trip id="4133_1" depart="59377.00" from="67" to="287" type="car" />
    <trip id="1644_1" depart="59378.00" from="188" to="164" type="car" />
    <trip id="42_1" depart="59386.00" from="218" to="256" type="car" />
    <trip id="3662_1" depart="59391.00" from="185" to="297" type="car" />
    <trip id="1771_1" depart="59400.00" from="215" to="529" type="car" />
    <trip id="1813_1" depart="59404.00" from="625" to="614" type="car" />
    <trip id="2566_1" depart="59404.00" from="531" to="513" type="car" />
    <trip id="1261_1" depart="59414.00" from="124" to="515" type="car" />
    <trip id="2406_1" depart="59418.00" from="1" to="345" type="car" />
    <trip id="2046_1" depart="59421.00" from="497" to="248" type="car" />
    <trip id="2596_1" depart="59421.00" from="500" to="296" type="car" />
    <trip id="3342_1" depart="59424.00" from="80" to="192" type="car" />
    <trip id="2847_1" depart="59428.00" from="491" to="135" type="car" />
    <trip id="3684_1" depart="59434.00" from="555" to="226" type="car" />
    <trip id="196_1" depart="59455.00" from="485" to="190" type="car" />
    <trip id="4039_1" depart="59460.00" from="410" to="433" type="car" />
    <trip id="4468_1" depart="59462.00" from="536" to="399" type="car" />
    <trip id="4246_1" depart="59463.00" from="91" to="564" type="car" />
    <trip id="2617_1" depart="59475.00" from="120" to="370" type="car" />
    <trip id="552_1" depart="59477.00" from="552" to="7" type="car" />
    <trip id="4987_1" depart="59478.00" from="53" to="261" type="car" />
    <trip id="2020_1" depart="59487.00" from="600" to="502" type="car" />
    <trip id="3523_1" depart="59493.00" from="366" to="74" type="car" />
    <trip id="2181_1" depart="59502.00" from="49" to="469" type="car" />
    <trip id="4363_1" depart="59502.00" from="378" to="405" type="car" />
    <trip id="380_1" depart="59514.00" from="184" to="398" type="car" />
    <trip id="1091_1" depart="59517.00" from="396" to="389" type="car" />
    <trip id="3400_1" depart="59520.00" from="113" to="254" type="car" />
    <trip id="1206_1" depart="59522.00" from="340" to="450" type="car" />
    <trip id="4357_1" depart="59526.00" from="21" to="388" type="car" />
    <trip id="1279_1" depart="59531.00" from="51" to="168" type="car" />
    <trip id="2454_1" depart="59542.00" from="498" to="137" type="car" />
    <trip id="4170_1" depart="59545.00" from="153" to="354" type="car" />
    <trip id="3900_1" depart="59549.00" from="441" to="330" type="car" />
    <trip id="4309_1" depart="59550.00" from="478" to="399" type="car" />
    <trip id="3468_1" depart="59551.00" from="132" to="378" type="car" />
    <trip id="4415_1" depart="59564.00" from="376" to="525" type="car" />
    <trip id="747_1" depart="59564.00" from="76" to="531" type="car" />
    <trip id="3096_1" depart="59571.00" from="619" to="225" type="car" />
    <trip id="4691_1" depart="59572.00" from="91" to="405" type="car" />
    <trip id="4216_1" depart="59585.00" from="484" to="381" type="car" />
    <trip id="1734_1" depart="59601.00" from="585" to="411" type="car" />
    <trip id="4033_1" depart="59616.00" from="158" to="49" type="car" />
    <trip id="4774_1" depart="59627.00" from="109" to="163" type="car" />
    <trip id="4413_1" depart="59628.00" from="174" to="111" type="car" />
    <trip id="2096_1" depart="59636.00" from="299" to="332" type="car" />
    <trip id="3854_1" depart="59659.00" from="610" to="360" type="car" />
    <trip id="3974_1" depart="59663.00" from="407" to="131" type="car" />
    <trip id="252_1" depart="59665.00" from="394" to="294" type="car" />
    <trip id="226_1" depart="59667.00" from="299" to="357" type="car" />
    <trip id="4803_1" depart="59669.00" from="448" to="557" type="car" />
    <trip id="3565_1" depart="59681.00" from="337" to="299" type="car" />
    <trip id="995_1" depart="59681.00" from="276" to="240" type="car" />
    <trip id="2152_1" depart="59688.00" from="23" to="7" type="car" />
    <trip id="4314_1" depart="59696.00" from="240" to="119" type="car" />
    <trip id="4894_1" depart="59701.00" from="609" to="450" type="car" />
    <trip id="2735_1" depart="59702.00" from="589" to="149" type="car" />
    <trip id="561_1" depart="59703.00" from="550" to="167" type="car" />
    <trip id="1593_1" depart="59708.00" from="498" to="426" type="car" />
    <trip id="2348_1" depart="59724.00" from="540" to="428" type="car" />
    <trip id="1927_1" depart="59732.00" from="295" to="50" type="car" />
    <trip id="2323_1" depart="59734.00" from="547" to="625" type="car" />
    <trip id="217_1" depart="59736.00" from="580" to="370" type="car" />
    <trip id="3211_1" depart="59751.00" from="57" to="141" type="car" />
    <trip id="3856_1" depart="59751.00" from="462" to="395" type="car" />
    <trip id="149_1" depart="59772.00" from="499" to="68" type="car" />
    <trip id="1939_1" depart="59773.00" from="506" to="569" type="car" />
    <trip id="4016_1" depart="59775.00" from="177" to="58" type="car" />
    <trip id="1056_1" depart="59796.00" from="150" to="446" type="car" />
    <trip id="2288_1" depart="59796.00" from="113" to="535" type="car" />
    <trip id="4909_1" depart="59797.00" from="406" to="304" type="car" />
    <trip id="3355_1" depart="59798.00" from="209" to="57" type="car" />
    <trip id="1257_1" depart="59806.00" from="128" to="445" type="car" />
    <trip id="2160_1" depart="59807.00" from="30" to="279" type="car" />
    <trip id="4709_1" depart="59811.00" from="607" to="334" type="car" />
    <trip id="3602_1" depart="59812.00" from="627" to="437" type="car" />
    <trip id="3428_1" depart="59815.00" from="446" to="512" type="car" />
    <trip id="809_1" depart="59818.00" from="431" to="278" type="car" />
    <trip id="4698_1" depart="59820.00" from="438" to="534" type="car" />
    <trip id="3982_1" depart="59825.00" from="538" to="164" type="car" />
    <trip id="168_1" depart="59830.00" from="101" to="420" type="car" />
    <trip id="293_1" depart="59834.00" from="325" to="245" type="car" />
    <trip id="4615_1" depart="59837.00" from="69" to="532" type="car" />
    <trip id="3777_1" depart="59850.00" from="219" to="327" type="car" />
    <trip id="4963_1" depart="59857.00" from="84" to="246" type="car" />
    <trip id="3508_1" depart="59864.00" from="597" to="383" type="car" />