<routes xmlns:xsi="http://www.w3.org/2001/XMLSchema-instance" xsi:noNamespaceSchemaLocation="http://sumo.dlr.de/xsd/routes_file.xsd">
    <vType id="car" vClass="passenger" />
    <vType id="bicycle" vClass="bicycle" />
    <trip id="667_0" depart="20094.00" from="119" to="55" type="car" />
    <trip id="1763_0" depart="20214.00" from="409" to="422" type="car" />
    <trip id="28_0" depart="20938.00" from="272" to="211" type="car" />
    <trip id="2423_0" depart="21456.00" from="451" to="109" type="car" />
    <trip id="1099_0" depart="22494.00" from="251" to="123" type="car" />
    <trip id="792_0" depart="22814.00" from="573" to="588" type="car" />
    <trip id="1238_0" depart="23059.00" from="350" to="236" type="car" />
    <trip id="1337_0" depart="23166.00" from="373" to="495" type="car" />
    <trip id="1996_0" depart="23168.00" from="431" to="66" type="car" />
    <trip id="1785_0" depart="23444.00" from="396" to="5" type="car" />
    <trip id="2032_0" depart="23603.00" from="528" to="351" type="car" />
    <trip id="1568_0" depart="23658.00" from="196" to="238" type="car" />
    <trip id="1399_0" depart="23801.00" from="49" to="457" type="car" />
    <trip id="2098_0" depart="23888.00" from="7" to="256" type="car" />
    <trip id="1588_0" depart="23923.00" from="424" to="159" type="car" />
    <trip id="1465_0" depart="24008.00" from="17" to="76" type="car" />
    <trip id="1769_0" depart="24050.00" from="159" to="522" type="car" />
    <trip id="1343_0" depart="24086.00" from="400" to="109" type="car" />
    <trip id="2119_0" depart="24127.00" from="527" to="371" type="car" />
    <trip id="2429_0" depart="24187.00" from="13" to="324" type="car" />
    <trip id="1488_0" depart="24293.00" from="578" to="615" type="car" />
    <trip id="566_0" depart="24331.00" from="108" to="169" type="car" />
    <trip id="1553_0" depart="24358.00" from="286" to="62" type="car" />
    <trip id="2388_0" depart="24466.00" from="578" to="88" type="car" />
    <trip id="1537_0" depart="24489.00" from="217" to="267" type="car" />
    <trip id="487_0" depart="24560.00" from="306" to="425" type="car" />
    <trip id="220_0" depart="24606.00" from="621" to="475" type="car" />
    <trip id="2335_0" depart="24613.00" from="173" to="575" type="car" />
    <trip id="923_0" depart="24626.00" from="358" to="28" type="car" />
    <trip id="2030_0" depart="24776.00" from="520" to="514" type="car" />
    <trip id="1163_0" depart="24889.00" from="14" to="7" type="car" />
    <trip id="665_0" depart="24893.00" from="610" to="5" type="car" />
    <trip id="2419_0" depart="24958.00" from="567" to="15" type="car" />
    <trip id="1694_0" depart="24982.00" from="162" to="191" type="car" />
    <trip id="1028_0" depart="25046.00" from="512" to="222" type="car" />
    <trip id="2079_0" depart="25046.00" from="533" to="621" type="car" />
    <trip id="2073_0" depart="25081.00" from="414" to="464" type="car" />
    <trip id="572_0" depart="25099.00" from="105" to="532" type="car" />
    <trip id="855_0" depart="25119.00" from="584" to="251" type="car" />
    <trip id="1233_0" depart="25163.00" from="368" to="173" type="car" />
    <trip id="715_0" depart="25189.00" from="72" to="430" type="car" />
    <trip id="1522_0" depart="25194.00" from="217" to="102" type="car" />
    <trip id="1222_0" depart="25223.00" from="343" to="548" type="car" />
    <trip id="411_0" depart="25255.00" from="446" to="613" type="car" />
    <trip id="2283_0" depart="25287.00" from="332" to="72" type="car" />
    <trip id="297_0" depart="25303.00" from="119" to="629" type="car" />
    <trip id="996_0" depart="25323.00" from="284" to="470" type="car" />
    <trip id="2418_0" depart="25343.00" from="309" to="504" type="car" />
    <trip id="25_0" depart="25367.00" from="279" to="435" type="car" />
    <trip id="991_0" depart="25380.00" from="465" to="526" type="car" />
    <trip id="2226_0" depart="25388.00" from="227" to="258" type="car" />
    <trip id="206_0" depart="25397.00" from="30" to="475" type="car" />
    <trip id="2129_0" depart="25399.00" from="437" to="583" type="car" />
    <trip id="1533_0" depart="25412.00" from="170" to="359" type="car" />
    <trip id="367_0" depart="25430.00" from="440" to="569" type="car" />
    <trip id="1909_0" depart="25506.00" from="225" to="483" type="car" />
    <trip id="285_0" depart="25526.00" from="203" to="155" type="car" />
    <trip id="250_0" depart="25534.00" from="345" to="538" type="car" />
    <trip id="1860_0" depart="25548.00" from="470" to="476" type="car" />
    <trip id="2144_0" depart="25567.00" from="272" to="50" type="car" />
    <trip id="1001_0" depart="25579.00" from="159" to="498" type="car" />
    <trip id="2289_0" depart="25626.00" from="450" to="192" type="car" />
    <trip id="854_0" depart="25628.00" from="177" to="260" type="car" />
    <trip id="1285_0" depart="25629.00" from="327" to="344" type="car" />
    <trip id="568_0" depart="25657.00" from="565" to="238" type="car" />
    <trip id="2338_0" depart="25670.00" from="341" to="117" type="car" />
    <trip id="2135_0" depart="25705.00" from="309" to="595" type="car" />
    <trip id="2223_0" depart="25708.00" from="504" to="450" type="car" />
    <trip id="110_0" depart="25763.00" from="344" to="129" type="car" />
    <trip id="1739_0" depart="25797.00" from="3" to="96" type="car" />
    <trip id="201_0" depart="25805.00" from="601" to="495" type="car" />
    <trip id="2359_0" depart="25818.00" from="235" to="411" type="car" />
    <trip id="2287_0" depart="25828.00" from="151" to="302" type="car" />
    <trip id="418_0" depart="25831.00" from="86" to="12" type="car" />
    <trip id="2077_0" depart="25838.00" from="512" to="606" type="car" />
    <trip id="2319_0" depart="25857.00" from="609" to="411" type="car" />
    <trip id="24_0" depart="25860.00" from="433" to="342" type="car" />
    <trip id="434_0" depart="25864.00" from="350" to="215" type="car" />
    <trip id="1430_0" depart="25868.00" from="525" to="252" type="car" />
    <trip id="904_0" depart="25871.00" from="376" to="347" type="car" />
    <trip id="1661_0" depart="25876.00" from="153" to="514" type="car" />
    <trip id="2140_0" depart="25896.00" from="231" to="376" type="car" />
    <trip id="1338_0" depart="25906.00" from="455" to="476" type="car" />
    <trip id="409_0" depart="25935.00" from="600" to="605" type="car" />
    <trip id="2275_0" depart="25936.00" from="463" to="85" type="car" />
    <trip id="466_0" depart="25987.00" from="97" to="482" type="car" />
    <trip id="737_0" depart="26026.00" from="70" to="135" type="car" />
    <trip id="1035_0" depart="26037.00" from="381" to="61" type="car" />
    <trip id="1401_0" depart="26060.00" from="405" to="202" type="car" />
    <trip id="1918_0" depart="26091.00" from="340" to="309" type="car" />
    <trip id="1832_0" depart="26098.00" from="437" to="583" type="car" />
    <trip id="1260_0" depart="26159.00" from="385" to="246" type="car" />
    <trip id="767_0" depart="26162.00" from="536" to="390" type="car" />
    <trip id="1800_0" depart="26178.00" from="620" to="508" type="car" />
    <trip id="363_0" depart="26185.00" from="144" to="454" type="car" />
    <trip id="782_0" depart="26187.00" from="552" to="340" type="car" />
    <trip id="1208_0" depart="26189.00" from="363" to="220" type="car" />
    <trip id="1815_0" depart="26194.00" from="537" to="542" type="car" />
    <trip id="757_0" depart="26207.00" from="380" to="296" type="car" />
    <trip id="92_0" depart="26208.00" from="453" to="276" type="car" />
    <trip id="2484_0" depart="26218.00" from="19" to="293" type="car" />
    <trip id="270_0" depart="26244.00" from="100" to="190" type="car" />
    <trip id="793_0" depart="26275.00" from="626" to="329" type="car" />
    <trip id="221_0" depart="26292.00" from="116" to="436" type="car" />
    <trip id="23_0" depart="26300.00" from="340" to="610" type="car" />
    <trip id="600_0" depart="26316.00" from="549" to="583" type="car" />
    <trip id="1618_0" depart="26319.00" from="408" to="26" type="car" />
    <trip id="1327_0" depart="26383.00" from="273" to="7" type="car" />
    <trip id="438_0" depart="26394.00" from="441" to="556" type="car" />
    <trip id="1564_0" depart="26412.00" from="509" to="396" type="car" />
    <trip id="1073_0" depart="26415.00" from="394" to="378" type="car" />
    <trip id="2271_0" depart="26421.00" from="239" to="187" type="car" />
    <trip id="1595_0" depart="26422.00" from="476" to="82" type="car" />
    <trip id="1762_0" depart="26426.00" from="556" to="216" type="car" />
    <trip id="972_0" depart="26443.00" from="608" to="281" type="car" />
    <trip id="1583_0" depart="26446.00" from="610" to="460" type="car" />
    <trip id="1359_0" depart="26456.00" from="461" to="163" type="car" />
    <trip id="1224_0" depart="26469.00" from="447" to="357" type="car" />
    <trip id="940_0" depart="26499.00" from="282" to="61" type="car" />
    <trip id="1423_0" depart="26504.00" from="199" to="122" type="car" />
    <trip id="2366_0" depart="26506.00" from="622" to="57" type="car" />
    <trip id="353_0" depart="26510.00" from="597" to="162" type="car" />
    <trip id="1189_0" depart="26522.00" from="175" to="189" type="car" />
    <trip id="407_0" depart="26526.00" from="310" to="185" type="car" />
    <trip id="883_0" depart="26526.00" from="564" to="329" type="car" />
    <trip id="1696_0" depart="26538.00" from="27" to="295" type="car" />
    <trip id="556_0" depart="26539.00" from="307" to="627" type="car" />
    <trip id="1471_0" depart="26545.00" from="17" to="219" type="car" />
    <trip id="2124_0" depart="26555.00" from="32" to="451" type="car" />
    <trip id="1948_0" depart="26556.00" from="566" to="134" type="car" />
    <trip id="1664_0" depart="26564.00" from="623" to="52" type="car" />
    <trip id="1930_0" depart="26566.00" from="77" to="20" type="car" />
    <trip id="1599_0" depart="26570.00" from="468" to="250" type="car" />
    <trip id="1049_0" depart="26589.00" from="357" to="110" type="car" />
    <trip id="66_0" depart="26603.00" from="265" to="352" type="car" />
    <trip id="85_0" depart="26607.00" from="10" to="174" type="car" />
    <trip id="2169_0" depart="26631.00" from="48" to="409" type="car" />
    <trip id="1597_0" depart="26640.00" from="460" to="547" type="car" />
    <trip id="1722_0" depart="26650.00" from="570" to="197" type="car" />
    <trip id="1534_0" depart="26657.00" from="585" to="629" type="car" />
    <trip id="1372_0" depart="26660.00" from="345" to="454" type="car" />
    <trip id="2155_0" depart="26665.00" from="225" to="185" type="car" />
    <trip id="2086_0" depart="26691.00" from="352" to="388" type="car" />
    <trip id="2049_0" depart="26693.00" from="615" to="620" type="car" />
    <trip id="1521_0" depart="26694.00" from="443" to="518" type="car" />
    <trip id="1311_0" depart="26698.00" from="361" to="51" type="car" />
    <trip id="1819_0" depart="26701.00" from="87" to="169" type="car" />
    <trip id="698_0" depart="26703.00" from="142" to="437" type="car" />
    <trip id="1587_0" depart="26708.00" from="433" to="465" type="car" />
    <trip id="40_0" depart="26715.00" from="550" to="562" type="car" />
    <trip id="492_0" depart="26723.00" from="263" to="214" type="car" />
    <trip id="475_0" depart="26728.00" from="445" to="148" type="car" />
    <trip id="1504_0" depart="26730.00" from="615" to="232" type="car" />
    <trip id="99_0" depart="26732.00" from="449" to="283" type="car" />
    <trip id="215_0" depart="26740.00" from="473" to="286" type="car" />
    <trip id="2483_0" depart="26756.00" from="173" to="606" type="car" />
    <trip id="1431_0" depart="26757.00" from="470" to="218" type="car" />
    <trip id="1729_0" depart="26779.00" from="260" to="146" type="car" />
    <trip id="817_0" depart="26783.00" from="563" to="231" type="car" />
    <trip id="607_0" depart="26795.00" from="630" to="623" type="car" />
    <trip id="498_0" depart="26809.00" from="428" to="347" type="car" />
    <trip id="884_0" depart="26817.00" from="621" to="493" type="car" />
    <trip id="1383_0" depart="26834.00" from="425" to="354" type="car" />
    <trip id="1787_0" depart="26842.00" from="311" to="124" type="car" />
    <trip id="1442_0" depart="26863.00" from="12" to="514" type="car" />
    <trip id="2262_0" depart="26879.00" from="50" to="358" type="car" />
    <trip id="540_0" depart="26891.00" from="64" to="465" type="car" />
    <trip id="646_0" depart="26928.00" from="67" to="2" type="car" />
    <trip id="2458_0" depart="26943.00" from="61" to="53" type="car" />
    <trip id="1546_0" depart="26951.00" from="356" to="125" type="car" />
    <trip id="2413_0" depart="26953.00" from="324" to="479" type="car" />
    <trip id="1106_0" depart="26967.00" from="72" to="8" type="car" />
    <trip id="1051_0" depart="26990.00" from="217" to="600" type="car" />
    <trip id="2205_0" depart="27010.00" from="443" to="485" type="car" />
    <trip id="543_0" depart="27023.00" from="80" to="174" type="car" />
    <trip id="879_0" depart="27033.00" from="348" to="363" type="car" />
    <trip id="401_0" depart="27041.00" from="231" to="27" type="car" />
    <trip id="1403_0" depart="27068.00" from="550" to="95" type="car" />
    <trip id="580_0" depart="27083.00" from="482" to="129" type="car" />
    <trip id="1681_0" depart="27088.00" from="421" to="113" type="car" />
    <trip id="1019_0" depart="27101.00" from="272" to="269" type="car" />
    <trip id="2325_0" depart="27109.00" from="68" to="176" type="car" />
    <trip id="2336_0" depart="27110.00" from="10" to="236" type="car" />
    <trip id="480_0" depart="27127.00" from="10" to="141" type="car" />
    <trip id="1799_0" depart="27129.00" from="482" to="158" type="car" />
    <trip id="155_0" depart="27135.00" from="301" to="79" type="car" />
    <trip id="249_0" depart="27144.00" from="32" to="68" type="car" />
    <trip id="1833_0" depart="27154.00" from="548" to="24" type="car" />
    <trip id="1945_0" depart="27156.00" from="219" to="58" type="car" />
    <trip id="1718_0" depart="27183.00" from="118" to="63" type="car" />
    <trip id="1596_0" depart="27190.00" from="402" to="105" type="car" />
    <trip id="1804_0" depart="27191.00" from="69" to="536" type="car" />
    <trip id="1915_0" depart="27197.00" from="250" to="135" type="car" />
    <trip id="1034_0" depart="27212.00" from="404" to="215" type="car" />
    <trip id="1724_0" depart="27215.00" from="9" to="260" type="car" />
    <trip id="1145_0" depart="27225.00" from="613" to="10" type="car" />
    <trip id="1525_0" depart="27229.00" from="132" to="71" type="car" />
    <trip id="2115_0" depart="27245.00" from="413" to="269" type="car" />
    <trip id="2186_0" depart="27255.00" from="474" to="570" type="car" />
    <trip id="1107_0" depart="27265.00" from="503" to="194" type="car" />
    <trip id="994_0" depart="27269.00" from="421" to="390" type="car" />
    <trip id="643_0" depart="27278.00" from="282" to="124" type="car" />
    <trip id="1759_0" depart="27288.00" from="121" to="324" type="car" />
    <trip id="1695_0" depart="27291.00" from="448" to="412" type="car" />
    <trip id="332_0" depart="27309.00" from="449" to="217" type="car" />
    <trip id="1407_0" depart="27310.00" from="445" to="435" type="car" />
    <trip id="857_0" depart="27314.00" from="368" to="96" type="car" />
    <trip id="1593_0" depart="27318.00" from="426" to="498" type="car" />
    <trip id="1723_0" depart="27318.00" from="144" to="115" type="car" />
    <trip id="1578_0" depart="27349.00" from="624" to="388" type="car" />
    <trip id="7_0" depart="27391.00" from="222" to="190" type="car" />
    <trip id="74_0" depart="27395.00" from="291" to="60" type="car" />
    <trip id="2026_0" depart="27408.00" from="366" to="424" type="car" />
    <trip id="109_0" depart="27416.00" from="420" to="307" type="car" />
    <trip id="1272_0" depart="27420.00" from="596" to="148" type="car" />
    <trip id="392_0" depart="27425.00" from="536" to="575" type="car" />
    <trip id="535_0" depart="27425.00" from="79" to="596" type="car" />
    <trip id="787_0" depart="27458.00" from="68" to="562" type="car" />
    <trip id="650_0" depart="27461.00" from="55" to="624" type="car" />
    <trip id="614_0" depart="27465.00" from="371" to="352" type="car" />
    <trip id="70_0" depart="27469.00" from="348" to="159" type="car" />
    <trip id="700_0" depart="27470.00" from="434" to="592" type="car" />
    <trip id="1211_0" depart="27485.00" from="282" to="97" type="car" />
    <trip id="2462_0" depart="27491.00" from="12" to="563" type="car" />
    <trip id="682_0" depart="27497.00" from="555" to="422" type="car" />
    <trip id="241_0" depart="27499.00" from="85" to="563" type="car" />
    <trip id="1194_0" depart="27512.00" from="107" to="340" type="car" />
    <trip id="714_0" depart="27512.00" from="570" to="436" type="car" />
    <trip id="749_0" depart="27512.00" from="599" to="378" type="car" />
    <trip id="1886_0" depart="27515.00" from="622" to="210" type="car" />
    <trip id="2039_0" depart="27515.00" from="177" to="404" type="car" />
    <trip id="862_0" depart="27516.00" from="366" to="571" type="car" />
    <trip id="1940_0" depart="27523.00" from="615" to="90" type="car" />
    <trip id="233_0" depart="27530.00" from="413" to="7" type="car" />
    <trip id="247_0" depart="27533.00" from="89" to="230" type="car" />
    <trip id="1749_0" depart="27556.00" from="141" to="1" type="car" />
    <trip id="1474_0" depart="27572.00" from="500" to="435" type="car" />
    <trip id="2280_0" depart="27594.00" from="517" to="139" type="car" />
    <trip id="187_0" depart="27599.00" from="407" to="546" type="car" />
    <trip id="58_0" depart="27611.00" from="352" to="447" type="car" />
    <trip id="804_0" depart="27611.00" from="403" to="358" type="car" />
    <trip id="1745_0" depart="27614.00" from="122" to="205" type="car" />
    <trip id="1519_0" depart="27622.00" from="158" to="244" type="car" />
    <trip id="477_0" depart="27628.00" from="541" to="18" type="car" />
    <trip id="1128_0" depart="27642.00" from="233" to="249" type="car" />
    <trip id="1130_0" depart="27648.00" from="618" to="27" type="car" />
    <trip id="1549_0" depart="27651.00" from="75" to="250" type="car" />
    <trip id="992_0" depart="27663.00" from="563" to="501" type="car" />
    <trip id="1077_0" depart="27667.00" from="339" to="414" type="car" />
    <trip id="1838_0" depart="27672.00" from="410" to="430" type="car" />
    <trip id="2220_0" depart="27673.00" from="231" to="349" type="car" />
    <trip id="163_0" depart="27684.00" from="213" to="194" type="car" />
    <trip id="1088_0" depart="27685.00" from="451" to="233" type="car" />
    <trip id="2101_0" depart="27687.00" from="73" to="529" type="car" />
    <trip id="1288_0" depart="27700.00" from="432" to="511" type="car" />
    <trip id="892_0" depart="27717.00" from="76" to="49" type="car" />
    <trip id="2153_0" depart="27740.00" from="439" to="440" type="car" />
    <trip id="837_0" depart="27743.00" from="582" to="533" type="car" />
    <trip id="2001_0" depart="27762.00" from="565" to="596" type="car" />
    <trip id="586_0" depart="27763.00" from="562" to="347" type="car" />
    <trip id="1263_0" depart="27768.00" from="116" to="75" type="car" />
    <trip id="1461_0" depart="27773.00" from="627" to="505" type="car" />
    <trip id="2190_0" depart="27781.00" from="233" to="450" type="car" />
    <trip id="928_0" depart="27785.00" from="483" to="239" type="car" />
    <trip id="499_0" depart="27791.00" from="81" to="87" type="car" />
    <trip id="2179_0" depart="27794.00" from="288" to="18" type="car" />
    <trip id="697_0" depart="27798.00" from="157" to="240" type="car" />
    <trip id="2165_0" depart="27805.00" from="356" to="229" type="car" />
    <trip id="56_0" depart="27805.00" from="273" to="185" type="car" />
    <trip id="1779_0" depart="27816.00" from="524" to="245" type="car" />
    <trip id="1160_0" depart="27821.00" from="630" to="537" type="car" />
    <trip id="408_0" depart="27840.00" from="576" to="174" type="car" />
    <trip id="2128_0" depart="27841.00" from="194" to="607" type="car" />
    <trip id="2149_0" depart="27841.00" from="227" to="263" type="car" />
    <trip id="1703_0" depart="27848.00" from="46" to="516" type="car" />
    <trip id="1400_0" depart="27852.00" from="541" to="468" type="car" />
    <trip id="2203_0" depart="27869.00" from="196" to="613" type="car" />
    <trip id="971_0" depart="27878.00" from="80" to="540" type="car" />
    <trip id="44_0" depart="27891.00" from="241" to="164" type="car" />
    <trip id="830_0" depart="27911.00" from="598" to="221" type="car" />
    <trip id="877_0" depart="27929.00" from="266" to="629" type="car" />
    <trip id="1656_0" depart="27935.00" from="167" to="624" type="car" />
    <trip id="846_0" depart="27938.00" from="356" to="327" type="car" />
    <trip id="2436_0" depart="27939.00" from="261" to="28" type="car" />
    <trip id="2411_0" depart="27955.00" from="613" to="259" type="car" />
    <trip id="311_0" depart="27963.00" from="280" to="2" type="car" />
    <trip id="649_0" depart="27969.00" from="300" to="622" type="car" />
    <trip id="2211_0" depart="27976.00" from="628" to="466" type="car" />
    <trip id="424_0" depart="27978.00" from="479" to="575" type="car" />
    <trip id="2348_0" depart="27979.00" from="428" to="540" type="car" />
    <trip id="954_0" depart="27979.00" from="271" to="342" type="car" />
    <trip id="2019_0" depart="27981.00" from="520" to="149" type="car" />
    <trip id="601_0" depart="28002.00" from="126" to="409" type="car" />
    <trip id="421_0" depart="28006.00" from="190" to="254" type="car" />
    <trip id="1673_0" depart="28011.00" from="164" to="114" type="car" />
    <trip id="222_0" depart="28011.00" from="372" to="265" type="car" />
    <trip id="2213_0" depart="28028.00" from="92" to="454" type="car" />
    <trip id="1730_0" depart="28035.00" from="200" to="348" type="car" />
    <trip id="389_0" depart="28036.00" from="593" to="398" type="car" />
    <trip id="294_0" depart="28067.00" from="198" to="522" type="car" />
    <trip id="164_0" depart="28075.00" from="311" to="143" type="car" />
    <trip id="1250_0" depart="28081.00" from="233" to="605" type="car" />
    <trip id="1573_0" depart="28087.00" from="175" to="430" type="car" />
    <trip id="1621_0" depart="28101.00" from="25" to="160" type="car" />
    <trip id="30_0" depart="28103.00" from="540" to="65" type="car" />
    <trip id="2285_0" depart="28110.00" from="213" to="364" type="car" />
    <trip id="2004_0" depart="28115.00" from="92" to="468" type="car" />
    <trip id="942_0" depart="28127.00" from="429" to="59" type="car" />
    <trip id="989_0" depart="28130.00" from="602" to="192" type="car" />
    <trip id="760_0" depart="28141.00" from="518" to="260" type="car" />
    <trip id="852_0" depart="28141.00" from="200" to="186" type="car" />
    <trip id="1926_0" depart="28144.00" from="425" to="186" type="car" />
    <trip id="1284_0" depart="28150.00" from="161" to="429" type="car" />
    <trip id="759_0" depart="28156.00" from="15" to="74" type="car" />
    <trip id="962_0" depart="28169.00" from="199" to="220" type="car" />
    <trip id="1629_0" depart="28173.00" from="58" to="571" type="car" />
    <trip id="2016_0" depart="28176.00" from="628" to="81" type="car" />
    <trip id="260_0" depart="28185.00" from="85" to="565" type="car" />
    <trip id="1889_0" depart="28190.00" from="149" to="283" type="car" />
    <trip id="303_0" depart="28197.00" from="264" to="433" type="car" />
    <trip id="1911_0" depart="28206.00" from="585" to="588" type="car" />
    <trip id="309_0" depart="28209.00" from="538" to="594" type="car" />
    <trip id="1743_0" depart="28224.00" from="61" to="155" type="car" />
    <trip id="313_0" depart="28226.00" from="156" to="483" type="car" />
    <trip id="29_0" depart="28229.00" from="138" to="579" type="car" />
    <trip id="1639_0" depart="28242.00" from="127" to="271" type="car" />
    <trip id="1740_0" depart="28262.00" from="93" to="394" type="car" />
    <trip id="1651_0" depart="28267.00" from="7" to="153" type="car" />
    <trip id="1818_0" depart="28279.00" from="123" to="627" type="car" />
    <trip id="55_0" depart="28280.00" from="66" to="259" type="car" />
    <trip id="1569_0" depart="28293.00" from="373" to="429" type="car" />
    <trip id="426_0" depart="28294.00" from="309" to="278" type="car" />
    <trip id="2045_0" depart="28298.00" from="522" to="115" type="car" />
    <trip id="1102_0" depart="28301.00" from="106" to="466" type="car" />
    <trip id="2159_0" depart="28301.00" from="157" to="566" type="car" />
    <trip id="583_0" depart="28304.00" from="404" to="188" type="car" />
    <trip id="528_0" depart="28306.00" from="231" to="476" type="car" />
    <trip id="310_0" depart="28310.00" from="514" to="381" type="car" />
    <trip id="194_0" depart="28311.00" from="85" to="407" type="car" />
    <trip id="485_0" depart="28311.00" from="7" to="547" type="car" />
    <trip id="1867_0" depart="28320.00" from="378" to="32" type="car" />
    <trip id="1218_0" depart="28335.00" from="234" to="256" type="car" />
    <trip id="272_0" depart="28354.00" from="350" to="123" type="car" />
    <trip id="1426_0" depart="28364.00" from="442" to="242" type="car" />
    <trip id="982_0" depart="28383.00" from="568" to="505" type="car" />
    <trip id="232_0" depart="28392.00" from="586" to="15" type="car" />
    <trip id="2401_0" depart="28400.00" from="51" to="599" type="car" />
    <trip id="1515_0" depart="28404.00" from="246" to="450" type="car" />
    <trip id="2020_0" depart="28408.00" from="502" to="600" type="car" />
    <trip id="2341_0" depart="28420.00" from="380" to="373" type="car" />
    <trip id="1605_0" depart="28429.00" from="400" to="110" type="car" />
    <trip id="1178_0" depart="28435.00" from="625" to="359" type="car" />
    <trip id="2021_0" depart="28450.00" from="394" to="529" type="car" />
    <trip id="563_0" depart="28450.00" from="567" to="580" type="car" />
    <trip id="917_0" depart="28457.00" from="217" to="607" type="car" />
    <trip id="1898_0" depart="28458.00" from="352" to="512" type="car" />
    <trip id="2065_0" depart="28465.00" from="540" to="508" type="car" />
    <trip id="1386_0" depart="28469.00" from="325" to="190" type="car" />
    <trip id="2314_0" depart="28477.00" from="400" to="57" type="car" />
    <trip id="9_0" depart="28478.00" from="495" to="200" type="car" />
<trip id="848_0" depart="28482.00" from="527" to="72" type="car" />
    <trip id="324_0" depart="28512.00" from="357" to="521" type="car" />
    <trip id="766_0" depart="28513.00" from="238" to="141" type="car" />
    <trip id="2363_0" depart="28514.00" from="342" to="116" type="car" />
    <trip id="1307_0" depart="28517.00" from="335" to="305" type="car" />
    <trip id="1765_0" depart="28543.00" from="254" to="577" type="car" />
    <trip id="2037_0" depart="28546.00" from="239" to="518" type="car" />
    <trip id="1349_0" depart="28555.00" from="583" to="240" type="car" />
    <trip id="1557_0" depart="28565.00" from="614" to="512" type="car" />
    <trip id="53_0" depart="28569.00" from="259" to="112" type="car" />
    <trip id="338_0" depart="28590.00" from="608" to="49" type="car" />
    <trip id="1458_0" depart="28591.00" from="271" to="624" type="car" />
    <trip id="1887_0" depart="28592.00" from="148" to="400" type="car" />
    <trip id="1092_0" depart="28595.00" from="310" to="518" type="car" />
    <trip id="2163_0" depart="28602.00" from="160" to="287" type="car" />
    <trip id="2180_0" depart="28611.00" from="563" to="511" type="car" />
    <trip id="165_0" depart="28622.00" from="596" to="352" type="car" />
    <trip id="809_0" depart="28639.00" from="278" to="431" type="car" />
    <trip id="1070_0" depart="28641.00" from="257" to="348" type="car" />
    <trip id="1654_0" depart="28641.00" from="529" to="477" type="car" />
    <trip id="2380_0" depart="28649.00" from="385" to="328" type="car" />
    <trip id="203_0" depart="28651.00" from="62" to="250" type="car" />
    <trip id="1155_0" depart="28656.00" from="129" to="12" type="car" />
    <trip id="1545_0" depart="28670.00" from="290" to="156" type="car" />
    <trip id="328_0" depart="28672.00" from="406" to="99" type="car" />
    <trip id="729_0" depart="28677.00" from="614" to="114" type="car" />
    <trip id="1937_0" depart="28688.00" from="387" to="602" type="car" />
    <trip id="1600_0" depart="28691.00" from="250" to="580" type="car" />
    <trip id="2296_0" depart="28715.00" from="69" to="245" type="car" />
    <trip id="69_0" depart="28717.00" from="90" to="23" type="car" />
    <trip id="1862_0" depart="28729.00" from="57" to="505" type="car" />
    <trip id="911_0" depart="28739.00" from="508" to="354" type="car" />
    <trip id="1351_0" depart="28763.00" from="230" to="220" type="car" />
    <trip id="2463_0" depart="28775.00" from="505" to="27" type="car" />
    <trip id="2297_0" depart="28780.00" from="481" to="550" type="car" />
    <trip id="1081_0" depart="28788.00" from="375" to="175" type="car" />
    <trip id="753_0" depart="28795.00" from="47" to="536" type="car" />
    <trip id="1499_0" depart="28801.00" from="432" to="421" type="car" />
    <trip id="2056_0" depart="28811.00" from="200" to="506" type="car" />
    <trip id="2168_0" depart="28817.00" from="375" to="429" type="car" />
    <trip id="1325_0" depart="28819.00" from="206" to="201" type="car" />
    <trip id="1363_0" depart="28819.00" from="625" to="162" type="car" />
    <trip id="702_0" depart="28827.00" from="421" to="377" type="car" />
    <trip id="2248_0" depart="28828.00" from="461" to="421" type="car" />
    <trip id="61_0" depart="28832.00" from="471" to="31" type="car" />
    <trip id="1777_0" depart="28833.00" from="97" to="583" type="car" />