<routes xmlns:xsi="http://www.w3.org/2001/XMLSchema-instance" xsi:noNamespaceSchemaLocation="http://sumo.dlr.de/xsd/routes_file.xsd">
    <vType id="car" vClass="passenger" />
    <vType id="bicycle" vClass="bicycle" />
    <trip id="151_0" depart="22328.00" from="546" to="548" type="car" />
    <trip id="200_0" depart="22788.00" from="32" to="465" type="car" />
    <trip id="124_0" depart="22817.00" from="479" to="148" type="car" />
    <trip id="195_0" depart="23929.00" from="51" to="330" type="car" />
    <trip id="70_0" depart="24318.00" from="348" to="159" type="car" />
    <trip id="39_0" depart="25430.00" from="439" to="407" type="car" />
    <trip id="140_0" depart="25507.00" from="447" to="254" type="car" />
    <trip id="230_0" depart="25722.00" from="405" to="598" type="car" />
    <trip id="29_0" depart="25841.00" from="138" to="579" type="car" />
    <trip id="96_0" depart="26428.00" from="52" to="541" type="car" />
    <trip id="163_0" depart="26705.00" from="213" to="194" type="car" />
    <trip id="134_0" depart="27005.00" from="613" to="5" type="car" />
    <trip id="31_0" depart="27015.00" from="353" to="187" type="car" />
    <trip id="221_0" depart="27233.00" from="116" to="436" type="car" />
    <trip id="50_0" depart="27325.00" from="309" to="540" type="car" />
    <trip id="243_0" depart="27326.00" from="165" to="622" type="car" />
    <trip id="198_0" depart="27378.00" from="279" to="133" type="car" />
    <trip id="187_0" depart="27455.00" from="407" to="546" type="car" />
    <trip id="248_0" depart="27619.00" from="254" to="372" type="car" />
    <trip id="220_0" depart="27715.00" from="621" to="475" type="car" />
    <trip id="238_0" depart="27747.00" from="413" to="618" type="car" />
    <trip id="16_0" depart="27763.00" from="206" to="351" type="car" />
    <trip id="48_0" depart="27850.00" from="333" to="175" type="car" />
    <trip id="84_0" depart="27883.00" from="534" to="47" type="car" />
    <trip id="202_0" depart="28215.00" from="304" to="114" type="car" />
    <trip id="110_0" depart="28322.00" from="344" to="129" type="car" />
    <trip id="12_0" depart="28475.00" from="345" to="209" type="car" />
    <trip id="213_0" depart="28634.00" from="370" to="458" type="car" />
    <trip id="105_0" depart="28646.00" from="596" to="133" type="car" />
    <trip id="211_0" depart="28718.00" from="251" to="396" type="car" />
    <trip id="104_0" depart="28728.00" from="109" to="91" type="car" />
    <trip id="135_0" depart="28802.00" from="439" to="429" type="car" />
    <trip id="199_0" depart="28819.00" from="16" to="586" type="car" />
    <trip id="181_0" depart="28840.00" from="23" to="576" type="car" />
    <trip id="207_0" depart="28882.00" from="508" to="91" type="car" />
    <trip id="185_0" depart="28886.00" from="90" to="95" type="car" />
    <trip id="23_0" depart="28957.00" from="340" to="610" type="car" />
    <trip id="128_0" depart="28973.00" from="388" to="258" type="car" />
    <trip id="180_0" depart="29033.00" from="401" to="90" type="car" />
    <trip id="176_0" depart="29043.00" from="465" to="618" type="car" />
    <trip id="87_0" depart="29091.00" from="407" to="598" type="car" />
    <trip id="235_0" depart="29119.00" from="452" to="425" type="car" />
    <trip id="233_0" depart="29129.00" from="413" to="7" type="car" />
    <trip id="119_0" depart="29152.00" from="385" to="522" type="car" />
    <trip id="249_0" depart="29180.00" from="32" to="68" type="car" />
    <trip id="90_0" depart="29286.00" from="257" to="621" type="car" />
    <trip id="222_0" depart="29350.00" from="372" to="265" type="car" />
    <trip id="179_0" depart="29351.00" from="208" to="48" type="car" />
    <trip id="60_0" depart="29429.00" from="270" to="562" type="car" />
    <trip id="41_0" depart="29565.00" from="66" to="242" type="car" />
    <trip id="171_0" depart="29609.00" from="485" to="524" type="car" />
    <trip id="225_0" depart="29640.00" from="397" to="373" type="car" />
    <trip id="55_0" depart="29652.00" from="66" to="259" type="car" />
    <trip id="157_0" depart="29655.00" from="307" to="343" type="car" />
    <trip id="73_0" depart="29658.00" from="195" to="108" type="car" />
    <trip id="168_0" depart="29674.00" from="420" to="101" type="car" />
    <trip id="214_0" depart="29682.00" from="514" to="501" type="car" />
    <trip id="45_0" depart="29682.00" from="468" to="329" type="car" />
    <trip id="164_0" depart="29734.00" from="311" to="143" type="car" />
    <trip id="143_0" depart="29764.00" from="428" to="207" type="car" />
    <trip id="121_0" depart="29814.00" from="404" to="246" type="car" />
    <trip id="169_0" depart="29878.00" from="291" to="566" type="car" />
    <trip id="49_0" depart="29934.00" from="543" to="250" type="car" />
    <trip id="227_0" depart="29973.00" from="549" to="352" type="car" />
    <trip id="112_0" depart="30019.00" from="23" to="451" type="car" />
    <trip id="46_0" depart="30045.00" from="523" to="621" type="car" />
    <trip id="126_0" depart="30096.00" from="611" to="153" type="car" />
    <trip id="166_0" depart="30103.00" from="132" to="494" type="car" />
    <trip id="53_0" depart="30103.00" from="259" to="112" type="car" />
    <trip id="75_0" depart="30173.00" from="312" to="49" type="car" />
    <trip id="247_0" depart="30194.00" from="89" to="230" type="car" />
    <trip id="58_0" depart="30317.00" from="352" to="447" type="car" />
    <trip id="22_0" depart="30373.00" from="437" to="99" type="car" />
    <trip id="178_0" depart="30476.00" from="96" to="401" type="car" />
    <trip id="43_0" depart="30526.00" from="24" to="359" type="car" />
    <trip id="19_0" depart="30585.00" from="442" to="227" type="car" />
    <trip id="52_0" depart="30590.00" from="352" to="63" type="car" />
    <trip id="101_0" depart="30615.00" from="269" to="304" type="car" />
    <trip id="102_0" depart="30618.00" from="421" to="24" type="car" />
    <trip id="25_0" depart="30659.00" from="279" to="435" type="car" />
    <trip id="231_0" depart="30699.00" from="341" to="361" type="car" />
    <trip id="3_0" depart="30762.00" from="445" to="163" type="car" />
    <trip id="145_0" depart="30792.00" from="518" to="400" type="car" />
    <trip id="78_0" depart="30792.00" from="397" to="526" type="car" />
    <trip id="11_0" depart="30841.00" from="375" to="176" type="car" />
    <trip id="106_0" depart="30867.00" from="397" to="520" type="car" />
    <trip id="205_0" depart="30868.00" from="188" to="179" type="car" />
    <trip id="86_0" depart="30979.00" from="426" to="196" type="car" />
    <trip id="139_0" depart="31010.00" from="162" to="139" type="car" />
    <trip id="155_0" depart="31050.00" from="301" to="79" type="car" />
    <trip id="192_0" depart="31141.00" from="447" to="66" type="car" />
    <trip id="94_0" depart="31197.00" from="352" to="169" type="car" />
    <trip id="59_0" depart="31201.00" from="593" to="168" type="car" />
    <trip id="127_0" depart="31278.00" from="363" to="594" type="car" />
    <trip id="88_0" depart="31336.00" from="449" to="590" type="car" />
    <trip id="6_0" depart="31344.00" from="503" to="213" type="car" />
    <trip id="160_0" depart="31437.00" from="431" to="191" type="car" />
    <trip id="182_0" depart="31580.00" from="116" to="503" type="car" />
    <trip id="201_0" depart="31597.00" from="601" to="495" type="car" />
    <trip id="203_0" depart="31634.00" from="62" to="250" type="car" />
    <trip id="184_0" depart="31675.00" from="599" to="298" type="car" />
    <trip id="24_0" depart="31757.00" from="433" to="342" type="car" />
    <trip id="63_0" depart="31822.00" from="324" to="382" type="car" />
    <trip id="71_0" depart="31892.00" from="247" to="457" type="car" />
    <trip id="95_0" depart="31901.00" from="573" to="512" type="car" />
    <trip id="15_0" depart="31962.00" from="549" to="283" type="car" />
    <trip id="91_0" depart="31974.00" from="224" to="169" type="car" />
    <trip id="216_0" depart="31986.00" from="131" to="221" type="car" />
    <trip id="68_0" depart="32047.00" from="222" to="596" type="car" />
    <trip id="107_0" depart="32122.00" from="471" to="286" type="car" />
    <trip id="177_0" depart="32138.00" from="608" to="141" type="car" />
    <trip id="241_0" depart="32156.00" from="85" to="563" type="car" />
    <trip id="89_0" depart="32198.00" from="551" to="449" type="car" />
    <trip id="9_0" depart="32200.00" from="495" to="200" type="car" />
<trip id="28_0" depart="32289.00" from="272" to="211" type="car" />
    <trip id="191_0" depart="32293.00" from="601" to="128" type="car" />
    <trip id="229_0" depart="32393.00" from="166" to="257" type="car" />
    <trip id="123_0" depart="32408.00" from="206" to="89" type="car" />
    <trip id="103_0" depart="32462.00" from="573" to="162" type="car" />
    <trip id="56_0" depart="32483.00" from="273" to="185" type="car" />
    <trip id="129_0" depart="32591.00" from="22" to="67" type="car" />
    <trip id="224_0" depart="32631.00" from="562" to="276" type="car" />
    <trip id="0_0" depart="32635.00" from="582" to="620" type="car" />
    <trip id="173_0" depart="32640.00" from="13" to="438" type="car" />
    <trip id="183_0" depart="32708.00" from="47" to="303" type="car" />
    <trip id="20_0" depart="32753.00" from="325" to="81" type="car" />
    <trip id="85_0" depart="32771.00" from="10" to="174" type="car" />
    <trip id="234_0" depart="32782.00" from="236" to="256" type="car" />
    <trip id="148_0" depart="32794.00" from="108" to="429" type="car" />
    <trip id="100_0" depart="32869.00" from="526" to="132" type="car" />
    <trip id="215_0" depart="32877.00" from="473" to="286" type="car" />
    <trip id="188_0" depart="32897.00" from="189" to="373" type="car" />
    <trip id="74_0" depart="32922.00" from="291" to="60" type="car" />
    <trip id="132_0" depart="32930.00" from="96" to="402" type="car" />
    <trip id="116_0" depart="32947.00" from="179" to="381" type="car" />
    <trip id="165_0" depart="32978.00" from="596" to="352" type="car" />
    <trip id="206_0" depart="33040.00" from="30" to="475" type="car" />
    <trip id="66_0" depart="33170.00" from="265" to="352" type="car" />
    <trip id="197_0" depart="33184.00" from="344" to="226" type="car" />
    <trip id="147_0" depart="33233.00" from="547" to="213" type="car" />
    <trip id="118_0" depart="33316.00" from="249" to="169" type="car" />
    <trip id="174_0" depart="33332.00" from="4" to="22" type="car" />
    <trip id="158_0" depart="33334.00" from="448" to="303" type="car" />
    <trip id="146_0" depart="33425.00" from="363" to="407" type="car" />
    <trip id="10_0" depart="33444.00" from="151" to="197" type="car" />
    <trip id="240_0" depart="33462.00" from="483" to="627" type="car" />
    <trip id="83_0" depart="33463.00" from="64" to="205" type="car" />
    <trip id="244_0" depart="33464.00" from="356" to="274" type="car" />
    <trip id="193_0" depart="33483.00" from="587" to="89" type="car" />
    <trip id="242_0" depart="33490.00" from="620" to="452" type="car" />
    <trip id="167_0" depart="33498.00" from="23" to="569" type="car" />
    <trip id="133_0" depart="33516.00" from="328" to="132" type="car" />
    <trip id="137_0" depart="33526.00" from="434" to="53" type="car" />
    <trip id="92_0" depart="33572.00" from="453" to="276" type="car" />
    <trip id="51_0" depart="33593.00" from="477" to="394" type="car" />
    <trip id="236_0" depart="33668.00" from="103" to="375" type="car" />
    <trip id="194_0" depart="33731.00" from="85" to="407" type="car" />
    <trip id="8_0" depart="33779.00" from="224" to="12" type="car" />
    <trip id="149_0" depart="33828.00" from="68" to="499" type="car" />
    <trip id="131_0" depart="33851.00" from="571" to="493" type="car" />
    <trip id="218_0" depart="33852.00" from="294" to="502" type="car" />
    <trip id="17_0" depart="33862.00" from="404" to="78" type="car" />
    <trip id="93_0" depart="33874.00" from="140" to="573" type="car" />
    <trip id="141_0" depart="33938.00" from="408" to="288" type="car" />
    <trip id="217_0" depart="34004.00" from="370" to="580" type="car" />
    <trip id="245_0" depart="34094.00" from="117" to="138" type="car" />
    <trip id="7_0" depart="34112.00" from="222" to="190" type="car" />
    <trip id="69_0" depart="34260.00" from="90" to="23" type="car" />
    <trip id="196_0" depart="34296.00" from="190" to="485" type="car" />
    <trip id="98_0" depart="34304.00" from="607" to="432" type="car" />
    <trip id="18_0" depart="34336.00" from="242" to="627" type="car" />
    <trip id="150_0" depart="34337.00" from="439" to="444" type="car" />
    <trip id="72_0" depart="34379.00" from="570" to="192" type="car" />
    <trip id="2_0" depart="34386.00" from="187" to="199" type="car" />
    <trip id="42_0" depart="34428.00" from="256" to="218" type="car" />
    <trip id="156_0" depart="34493.00" from="102" to="146" type="car" />
    <trip id="33_0" depart="34510.00" from="2" to="473" type="car" />
    <trip id="5_0" depart="34557.00" from="514" to="217" type="car" />
    <trip id="159_0" depart="34584.00" from="421" to="129" type="car" />
    <trip id="226_0" depart="34713.00" from="357" to="299" type="car" />
    <trip id="204_0" depart="34742.00" from="31" to="259" type="car" />
    <trip id="136_0" depart="34762.00" from="296" to="173" type="car" />
    <trip id="97_0" depart="34781.00" from="9" to="189" type="car" />
    <trip id="120_0" depart="34790.00" from="397" to="220" type="car" />
    <trip id="21_0" depart="34944.00" from="161" to="237" type="car" />
    <trip id="153_0" depart="34968.00" from="612" to="191" type="car" />
    <trip id="152_0" depart="34996.00" from="67" to="605" type="car" />
    <trip id="67_0" depart="35017.00" from="613" to="340" type="car" />
    <trip id="81_0" depart="35031.00" from="442" to="399" type="car" />
    <trip id="13_0" depart="35038.00" from="192" to="276" type="car" />
    <trip id="125_0" depart="35051.00" from="177" to="294" type="car" />
    <trip id="54_0" depart="35075.00" from="5" to="213" type="car" />
    <trip id="172_0" depart="35107.00" from="382" to="445" type="car" />
    <trip id="26_0" depart="35134.00" from="500" to="208" type="car" />
    <trip id="77_0" depart="35162.00" from="50" to="382" type="car" />
    <trip id="130_0" depart="35304.00" from="267" to="176" type="car" />
    <trip id="212_0" depart="35350.00" from="14" to="198" type="car" />
    <trip id="115_0" depart="35370.00" from="110" to="182" type="car" />
    <trip id="232_0" depart="35373.00" from="586" to="15" type="car" />
    <trip id="210_0" depart="35468.00" from="216" to="50" type="car" />
    <trip id="237_0" depart="35520.00" from="48" to="404" type="car" />
    <trip id="162_0" depart="35613.00" from="362" to="9" type="car" />
    <trip id="175_0" depart="35660.00" from="521" to="466" type="car" />
    <trip id="228_0" depart="35718.00" from="46" to="235" type="car" />
    <trip id="108_0" depart="35733.00" from="381" to="93" type="car" />
    <trip id="34_0" depart="35772.00" from="465" to="504" type="car" />
    <trip id="62_0" depart="35810.00" from="130" to="185" type="car" />
    <trip id="35_0" depart="35829.00" from="23" to="370" type="car" />
    <trip id="219_0" depart="35837.00" from="551" to="352" type="car" />
    <trip id="47_0" depart="35883.00" from="21" to="529" type="car" />
    <trip id="161_0" depart="36077.00" from="245" to="626" type="car" />
    <trip id="189_0" depart="36159.00" from="541" to="200" type="car" />
    <trip id="38_0" depart="36297.00" from="179" to="511" type="car" />
    <trip id="4_0" depart="36306.00" from="358" to="233" type="car" />
    <trip id="57_0" depart="36363.00" from="481" to="284" type="car" />
    <trip id="190_0" depart="36432.00" from="623" to="224" type="car" />
    <trip id="37_0" depart="36459.00" from="522" to="213" type="car" />
    <trip id="1_0" depart="36474.00" from="19" to="578" type="car" />
    <trip id="142_0" depart="36534.00" from="626" to="270" type="car" />
    <trip id="99_0" depart="36541.00" from="449" to="283" type="car" />
    <trip id="246_0" depart="36553.00" from="588" to="385" type="car" />
    <trip id="27_0" depart="36602.00" from="338" to="523" type="car" />
    <trip id="223_0" depart="36630.00" from="616" to="197" type="car" />
    <trip id="80_0" depart="36907.00" from="605" to="221" type="car" />
    <trip id="109_0" depart="36949.00" from="420" to="307" type="car" />
    <trip id="61_0" depart="37210.00" from="471" to="31" type="car" />
    <trip id="186_0" depart="37232.00" from="626" to="132" type="car" />
    <trip id="32_0" depart="37377.00" from="264" to="571" type="car" />
    <trip id="82_0" depart="37384.00" from="206" to="226" type="car" />
    <trip id="40_0" depart="37573.00" from="550" to="562" type="car" />
    <trip id="208_0" depart="37666.00" from="332" to="174" type="car" />
    <trip id="64_0" depart="38308.00" from="275" to="485" type="car" />
    <trip id="209_0" depart="38370.00" from="216" to="456" type="car" />
    <trip id="113_0" depart="38452.00" from="607" to="346" type="car" />
    <trip id="170_0" depart="38658.00" from="517" to="461" type="car" />
    <trip id="30_0" depart="38702.00" from="540" to="65" type="car" />
    <trip id="138_0" depart="38714.00" from="133" to="608" type="car" />
    <trip id="122_0" depart="38960.00" from="482" to="430" type="car" />
    <trip id="239_0" depart="39041.00" from="183" to="81" type="car" />
    <trip id="117_0" depart="39220.00" from="158" to="75" type="car" />
    <trip id="44_0" depart="39300.00" from="241" to="164" type="car" />
    <trip id="144_0" depart="39495.00" from="193" to="59" type="car" />
    <trip id="154_0" depart="40867.00" from="136" to="625" type="car" />
    <trip id="79_0" depart="40915.00" from="116" to="263" type="car" />
    <trip id="36_0" depart="41224.00" from="140" to="373" type="car" />
    <trip id="76_0" depart="41347.00" from="144" to="310" type="car" />
    <trip id="114_0" depart="41761.00" from="527" to="140" type="car" />
    <trip id="14_0" depart="41978.00" from="610" to="485" type="car" />
    <trip id="111_0" depart="43277.00" from="396" to="285" type="car" />
    <trip id="65_0" depart="43715.00" from="349" to="505" type="car" />
    <trip id="35_0" depart="53773.00" from="370" to="23" type="car" />
    <trip id="117_0" depart="54580.00" from="75" to="158" type="car" />
    <trip id="164_0" depart="55680.00" from="143" to="311" type="car" />
    <trip id="197_0" depart="55819.00" from="226" to="344" type="car" />
    <trip id="57_0" depart="56958.00" from="284" to="481" type="car" />
    <trip id="92_0" depart="57100.00" from="276" to="453" type="car" />
    <trip id="227_0" depart="57113.00" from="352" to="549" type="car" />
    <trip id="180_0" depart="57799.00" from="90" to="401" type="car" />
    <trip id="93_0" depart="58173.00" from="573" to="140" type="car" />
    <trip id="169_0" depart="58204.00" from="566" to="291" type="car" />
    <trip id="135_0" depart="58316.00" from="429" to="439" type="car" />
    <trip id="174_0" depart="58349.00" from="22" to="4" type="car" />
    <trip id="241_0" depart="58502.00" from="563" to="85" type="car" />
    <trip id="75_0" depart="58713.00" from="49" to="312" type="car" />
    <trip id="107_0" depart="58884.00" from="286" to="471" type="car" />
    <trip id="48_0" depart="58932.00" from="175" to="333" type="car" />
    <trip id="112_0" depart="59239.00" from="451" to="23" type="car" />
    <trip id="79_0" depart="59275.00" from="263" to="116" type="car" />
    <trip id="99_0" depart="59352.00" from="283" to="449" type="car" />
    <trip id="73_0" depart="59389.00" from="108" to="195" type="car" />
    <trip id="105_0" depart="59461.00" from="133" to="596" type="car" />
    <trip id="74_0" depart="59481.00" from="60" to="291" type="car" />
    <trip id="184_0" depart="59495.00" from="298" to="599" type="car" />
    <trip id="183_0" depart="59568.00" from="303" to="47" type="car" />
    <trip id="108_0" depart="59747.00" from="93" to="381" type="car" />
    <trip id="50_0" depart="59780.00" from="540" to="309" type="car" />
    <trip id="34_0" depart="59909.00" from="504" to="465" type="car" />
    <trip id="160_0" depart="60042.00" from="191" to="431" type="car" />
    <trip id="228_0" depart="60126.00" from="235" to="46" type="car" />
    <trip id="61_0" depart="60208.00" from="31" to="471" type="car" />
    <trip id="185_0" depart="60273.00" from="95" to="90" type="car" />
    <trip id="147_0" depart="60276.00" from="213" to="547" type="car" />
    <trip id="168_0" depart="60463.00" from="101" to="420" type="car" />
    <trip id="163_0" depart="60470.00" from="194" to="213" type="car" />
    <trip id="115_0" depart="60475.00" from="182" to="110" type="car" />
    <trip id="165_0" depart="60519.00" from="352" to="596" type="car" />
    <trip id="12_0" depart="60546.00" from="209" to="345" type="car" />
    <trip id="88_0" depart="60566.00" from="590" to="449" type="car" />
    <trip id="188_0" depart="60761.00" from="373" to="189" type="car" />
    <trip id="30_0" depart="60796.00" from="65" to="540" type="car" />
    <trip id="156_0" depart="60811.00" from="146" to="102" type="car" />
    <trip id="206_0" depart="60850.00" from="475" to="30" type="car" />
    <trip id="237_0" depart="61018.00" from="404" to="48" type="car" />
    <trip id="58_0" depart="61050.00" from="447" to="352" type="car" />
    <trip id="87_0" depart="61193.00" from="598" to="407" type="car" />
    <trip id="205_0" depart="61202.00" from="179" to="188" type="car" />
    <trip id="124_0" depart="61206.00" from="148" to="479" type="car" />
    <trip id="153_0" depart="61379.00" from="191" to="612" type="car" />
    <trip id="111_0" depart="61506.00" from="285" to="396" type="car" />
    <trip id="192_0" depart="61584.00" from="66" to="447" type="car" />
    <trip id="193_0" depart="61595.00" from="89" to="587" type="car" />
    <trip id="142_0" depart="61688.00" from="270" to="626" type="car" />
    <trip id="118_0" depart="61704.00" from="169" to="249" type="car" />
    <trip id="238_0" depart="61754.00" from="618" to="413" type="car" />
    <trip id="171_0" depart="61764.00" from="524" to="485" type="car" />
    <trip id="72_0" depart="61766.00" from="192" to="570" type="car" />
    <trip id="159_0" depart="61868.00" from="129" to="421" type="car" />
    <trip id="187_0" depart="62121.00" from="546" to="407" type="car" />
    <trip id="243_0" depart="62163.00" from="622" to="165" type="car" />
    <trip id="68_0" depart="62215.00" from="596" to="222" type="car" />
    <trip id="8_0" depart="62272.00" from="12" to="224" type="car" />
    <trip id="113_0" depart="62296.00" from="346" to="607" type="car" />
    <trip id="210_0" depart="62451.00" from="50" to="216" type="car" />
    <trip id="211_0" depart="62518.00" from="396" to="251" type="car" />
    <trip id="232_0" depart="62529.00" from="15" to="586" type="car" />
    <trip id="158_0" depart="62565.00" from="303" to="448" type="car" />
    <trip id="136_0" depart="62610.00" from="173" to="296" type="car" />
    <trip id="16_0" depart="62611.00" from="351" to="206" type="car" />
    <trip id="6_0" depart="62623.00" from="213" to="503" type="car" />
    <trip id="225_0" depart="62634.00" from="373" to="397" type="car" />
    <trip id="196_0" depart="62699.00" from="485" to="190" type="car" />
    <trip id="129_0" depart="62753.00" from="67" to="22" type="car" />
    <trip id="143_0" depart="62838.00" from="207" to="428" type="car" />
    <trip id="222_0" depart="62912.00" from="265" to="372" type="car" />
    <trip id="59_0" depart="62926.00" from="168" to="593" type="car" />
    <trip id="56_0" depart="62976.00" from="185" to="273" type="car" />
    <trip id="63_0" depart="62977.00" from="382" to="324" type="car" />
    <trip id="202_0" depart="62991.00" from="114" to="304" type="car" />
    <trip id="1_0" depart="63035.00" from="578" to="19" type="car" />
    <trip id="80_0" depart="63040.00" from="221" to="605" type="car" />
    <trip id="231_0" depart="63101.00" from="361" to="341" type="car" />
    <trip id="119_0" depart="63137.00" from="522" to="385" type="car" />
    <trip id="49_0" depart="63152.00" from="250" to="543" type="car" />
    <trip id="146_0" depart="63250.00" from="407" to="363" type="car" />
    <trip id="84_0" depart="63301.00" from="47" to="534" type="car" />
    <trip id="195_0" depart="63309.00" from="330" to="51" type="car" />
    <trip id="212_0" depart="63331.00" from="198" to="14" type="car" />
    <trip id="149_0" depart="63338.00" from="499" to="68" type="car" />
    <trip id="7_0" depart="63354.00" from="190" to="222" type="car" />
    <trip id="23_0" depart="63388.00" from="610" to="340" type="car" />
    <trip id="27_0" depart="63481.00" from="523" to="338" type="car" />
    <trip id="134_0" depart="63642.00" from="5" to="613" type="car" />
    <trip id="69_0" depart="63645.00" from="23" to="90" type="car" />
    <trip id="101_0" depart="63673.00" from="304" to="269" type="car" />
    <trip id="204_0" depart="63756.00" from="259" to="31" type="car" />
    <trip id="144_0" depart="63782.00" from="59" to="193" type="car" />
    <trip id="157_0" depart="63809.00" from="343" to="307" type="car" />
    <trip id="60_0" depart="63822.00" from="562" to="270" type="car" />
    <trip id="4_0" depart="63839.00" from="233" to="358" type="car" />
    <trip id="86_0" depart="63871.00" from="196" to="426" type="car" />
    <trip id="133_0" depart="63916.00" from="132" to="328" type="car" />
    <trip id="226_0" depart="63918.00" from="299" to="357" type="car" />
    <trip id="138_0" depart="64007.00" from="608" to="133" type="car" />
    <trip id="15_0" depart="64088.00" from="283" to="549" type="car" />
    <trip id="127_0" depart="64089.00" from="594" to="363" type="car" />
    <trip id="246_0" depart="64171.00" from="385" to="588" type="car" />
    <trip id="102_0" depart="64183.00" from="24" to="421" type="car" />
    <trip id="89_0" depart="64194.00" from="449" to="551" type="car" />
    <trip id="154_0" depart="64211.00" from="625" to="136" type="car" />
    <trip id="11_0" depart="64261.00" from="176" to="375" type="car" />
    <trip id="198_0" depart="64268.00" from="133" to="279" type="car" />
    <trip id="43_0" depart="64276.00" from="359" to="24" type="car" />
    <trip id="181_0" depart="64362.00" from="576" to="23" type="car" />
    <trip id="46_0" depart="64363.00" from="621" to="523" type="car" />
    <trip id="177_0" depart="64364.00" from="141" to="608" type="car" />
    <trip id="18_0" depart="64374.00" from="627" to="242" type="car" />
    <trip id="132_0" depart="64458.00" from="402" to="96" type="car" />
    <trip id="37_0" depart="64594.00" from="213" to="522" type="car" />
    <trip id="67_0" depart="64636.00" from="340" to="613" type="car" />
    <trip id="106_0" depart="64639.00" from="520" to="397" type="car" />
    <trip id="70_0" depart="64729.00" from="159" to="348" type="car" />
    <trip id="77_0" depart="64859.00" from="382" to="50" type="car" />
    <trip id="22_0" depart="64865.00" from="99" to="437" type="car" />
    <trip id="121_0" depart="64882.00" from="246" to="404" type="car" />
    <trip id="114_0" depart="64883.00" from="140" to="527" type="car" />
    <trip id="199_0" depart="64937.00" from="586" to="16" type="car" />
    <trip id="65_0" depart="64951.00" from="505" to="349" type="car" />
    <trip id="90_0" depart="64968.00" from="621" to="257" type="car" />
    <trip id="95_0" depart="64976.00" from="512" to="573" type="car" />
    <trip id="110_0" depart="64985.00" from="129" to="344" type="car" />
    <trip id="170_0" depart="65056.00" from="461" to="517" type="car" />
    <trip id="215_0" depart="65068.00" from="286" to="473" type="car" />
    <trip id="25_0" depart="65072.00" from="435" to="279" type="car" />
    <trip id="161_0" depart="65183.00" from="626" to="245" type="car" />
    <trip id="32_0" depart="65225.00" from="571" to="264" type="car" />
    <trip id="221_0" depart="65226.00" from="436" to="116" type="car" />
    <trip id="137_0" depart="65236.00" from="53" to="434" type="car" />
    <trip id="172_0" depart="65247.00" from="445" to="382" type="car" />
    <trip id="55_0" depart="65261.00" from="259" to="66" type="car" />
    <trip id="224_0" depart="65268.00" from="276" to="562" type="car" />
    <trip id="39_0" depart="65306.00" from="407" to="439" type="car" />
    <trip id="24_0" depart="65408.00" from="342" to="433" type="car" />
    <trip id="151_0" depart="65471.00" from="548" to="546" type="car" />
    <trip id="116_0" depart="65495.00" from="381" to="179" type="car" />
    <trip id="100_0" depart="65503.00" from="132" to="526" type="car" />
    <trip id="201_0" depart="65505.00" from="495" to="601" type="car" />
    <trip id="42_0" depart="65543.00" from="218" to="256" type="car" />
    <trip id="179_0" depart="65556.00" from="48" to="208" type="car" />
    <trip id="52_0" depart="65610.00" from="63" to="352" type="car" />
    <trip id="91_0" depart="65617.00" from="169" to="224" type="car" />
    <trip id="45_0" depart="65782.00" from="329" to="468" type="car" />
    <trip id="189_0" depart="65832.00" from="200" to="541" type="car" />
    <trip id="17_0" depart="65899.00" from="78" to="404" type="car" />
    <trip id="26_0" depart="65900.00" from="208" to="500" type="car" />
    <trip id="20_0" depart="65939.00" from="81" to="325" type="car" />
    <trip id="141_0" depart="65954.00" from="288" to="408" type="car" />
    <trip id="62_0" depart="65986.00" from="185" to="130" type="car" />
    <trip id="230_0" depart="65987.00" from="598" to="405" type="car" />
    <trip id="140_0" depart="66011.00" from="254" to="447" type="car" />
    <trip id="130_0" depart="66035.00" from="176" to="267" type="car" />
    <trip id="38_0" depart="66051.00" from="511" to="179" type="car" />
    <trip id="123_0" depart="66054.00" from="89" to="206" type="car" />