<routes xmlns:xsi="http://www.w3.org/2001/XMLSchema-instance" xsi:noNamespaceSchemaLocation="http://sumo.dlr.de/xsd/routes_file.xsd">
    <vType id="car" vClass="passenger" />
    <vType id="bicycle" vClass="bicycle" />
    <trip id="3_0" depart="25219.00" from="445" to="163" type="car" />
    <trip id="39_0" depart="25328.00" from="439" to="407" type="car" />
    <trip id="10_0" depart="26193.00" from="151" to="197" type="car" />
    <trip id="25_0" depart="28088.00" from="279" to="435" type="car" />
    <trip id="42_0" depart="28206.00" from="256" to="218" type="car" />
    <trip id="35_0" depart="28300.00" from="23" to="370" type="car" />
    <trip id="15_0" depart="28712.00" from="549" to="283" type="car" />
    <trip id="1_0" depart="29344.00" from="19" to="578" type="car" />
    <trip id="47_0" depart="29618.00" from="21" to="529" type="car" />
    <trip id="11_0" depart="30078.00" from="375" to="176" type="car" />
    <trip id="9_0" depart="30106.00" from="495" to="200" type="car" />
    <trip id="37_0" depart="30648.00" from="522" to="213" type="car" />
    <trip id="17_0" depart="30812.00" from="404" to="78" type="car" />
    <trip id="8_0" depart="30819.00" from="224" to="12" type="car" />
    <trip id="23_0" depart="31772.00" from="340" to="610" type="car" />
    <trip id="46_0" depart="31851.00" from="523" to="621" type="car" />
    <trip id="49_0" depart="32001.00" from="543" to="250" type="car" />
    <trip id="18_0" depart="32043.00" from="242" to="627" type="car" />
    <trip id="7_0" depart="32049.00" from="222" to="190" type="car" />
    <trip id="0_0" depart="32252.00" from="582" to="620" type="car" />
    <trip id="5_0" depart="32797.00" from="514" to="217" type="car" />
    <trip id="20_0" depart="32970.00" from="325" to="81" type="car" />
    <trip id="36_0" depart="33073.00" from="140" to="373" type="car" />
    <trip id="32_0" depart="33239.00" from="264" to="571" type="car" />
    <trip id="27_0" depart="33282.00" from="338" to="523" type="car" />
    <trip id="48_0" depart="33449.00" from="333" to="175" type="car" />
    <trip id="16_0" depart="33538.00" from="206" to="351" type="car" />
    <trip id="21_0" depart="33556.00" from="161" to="237" type="car" />
    <trip id="13_0" depart="33652.00" from="192" to="276" type="car" />
    <trip id="29_0" depart="33713.00" from="138" to="579" type="car" />
    <trip id="30_0" depart="33747.00" from="540" to="65" type="car" />
    <trip id="28_0" depart="33849.00" from="272" to="211" type="car" />
    <trip id="4_0" depart="33856.00" from="358" to="233" type="car" />
    <trip id="45_0" depart="34140.00" from="468" to="329" type="car" />
    <trip id="31_0" depart="34159.00" from="353" to="187" type="car" />
    <trip id="33_0" depart="34430.00" from="2" to="473" type="car" />
    <trip id="40_0" depart="34671.00" from="550" to="562" type="car" />
    <trip id="14_0" depart="34843.00" from="610" to="485" type="car" />
    <trip id="43_0" depart="34976.00" from="24" to="359" type="car" />
    <trip id="26_0" depart="35225.00" from="500" to="208" type="car" />
    <trip id="6_0" depart="35324.00" from="503" to="213" type="car" />
    <trip id="38_0" depart="35475.00" from="179" to="511" type="car" />
    <trip id="19_0" depart="36066.00" from="442" to="227" type="car" />
    <trip id="34_0" depart="36168.00" from="465" to="504" type="car" />
    <trip id="22_0" depart="36247.00" from="437" to="99" type="car" />
    <trip id="44_0" depart="36623.00" from="241" to="164" type="car" />
    <trip id="2_0" depart="36845.00" from="187" to="199" type="car" />
    <trip id="41_0" depart="36911.00" from="66" to="242" type="car" />
    <trip id="24_0" depart="39073.00" from="433" to="342" type="car" />
    <trip id="12_0" depart="39774.00" from="345" to="209" type="car" />
    <trip id="35_0" depart="55210.00" from="370" to="23" type="car" />
    <trip id="21_0" depart="58024.00" from="237" to="161" type="car" />
    <trip id="27_0" depart="58375.00" from="523" to="338" type="car" />
    <trip id="12_0" depart="58754.00" from="209" to="345" type="car" />
    <trip id="20_0" depart="59027.00" from="81" to="325" type="car" />
    <trip id="47_0" depart="59895.00" from="529" to="21" type="car" />
    <trip id="33_0" depart="60626.00" from="473" to="2" type="car" />
    <trip id="0_0" depart="60932.00" from="620" to="582" type="car" />
    <trip id="40_0" depart="61028.00" from="562" to="550" type="car" />
    <trip id="15_0" depart="61251.00" from="283" to="549" type="car" />
    <trip id="13_0" depart="61362.00" from="276" to="192" type="car" />
    <trip id="38_0" depart="61824.00" from="511" to="179" type="car" />
    <trip id="43_0" depart="62075.00" from="359" to="24" type="car" />
    <trip id="28_0" depart="62253.00" from="211" to="272" type="car" />
    <trip id="36_0" depart="63032.00" from="373" to="140" type="car" />
    <trip id="7_0" depart="63230.00" from="190" to="222" type="car" />
    <trip id="14_0" depart="63444.00" from="485" to="610" type="car" />
    <trip id="10_0" depart="63794.00" from="197" to="151" type="car" />
    <trip id="31_0" depart="63987.00" from="187" to="353" type="car" />
    <trip id="42_0" depart="64090.00" from="218" to="256" type="car" />
    <trip id="24_0" depart="64440.00" from="342" to="433" type="car" />
    <trip id="32_0" depart="64518.00" from="571" to="264" type="car" />
    <trip id="26_0" depart="64670.00" from="208" to="500" type="car" />
    <trip id="1_0" depart="64973.00" from="578" to="19" type="car" />
    <trip id="41_0" depart="65117.00" from="242" to="66" type="car" />
    <trip id="3_0" depart="65153.00" from="163" to="445" type="car" />
    <trip id="44_0" depart="65675.00" from="164" to="241" type="car" />
    <trip id="29_0" depart="65713.00" from="579" to="138" type="car" />
    <trip id="18_0" depart="66044.00" from="627" to="242" type="car" />
    <trip id="2_0" depart="66069.00" from="199" to="187" type="car" />
    <trip id="23_0" depart="66094.00" from="610" to="340" type="car" />
    <trip id="46_0" depart="66388.00" from="621" to="523" type="car" />
    <trip id="45_0" depart="66611.00" from="329" to="468" type="car" />
    <trip id="30_0" depart="66889.00" from="65" to="540" type="car" />
    <trip id="16_0" depart="66925.00" from="351" to="206" type="car" />
    <trip id="9_0" depart="66940.00" from="200" to="495" type="car" />
    <trip id="39_0" depart="66949.00" from="407" to="439" type="car" />
    <trip id="25_0" depart="67031.00" from="435" to="279" type="car" />
    <trip id="19_0" depart="67032.00" from="227" to="442" type="car" />
    <trip id="6_0" depart="67139.00" from="213" to="503" type="car" />
    <trip id="37_0" depart="67369.00" from="213" to="522" type="car" />
    <trip id="17_0" depart="67607.00" from="78" to="404" type="car" />
    <trip id="22_0" depart="67963.00" from="99" to="437" type="car" />
    <trip id="5_0" depart="68665.00" from="217" to="514" type="car" />
    <trip id="48_0" depart="69226.00" from="175" to="333" type="car" />
    <trip id="4_0" depart="69482.00" from="233" to="358" type="car" />
    <trip id="11_0" depart="69946.00" from="176" to="375" type="car" />
    <trip id="49_0" depart="69949.00" from="250" to="543" type="car" />
    <trip id="34_0" depart="71367.00" from="504" to="465" type="car" />
    <trip id="8_0" depart="76533.00" from="12" to="224" type="car" />


    </routes>