<?xml version="1.0" encoding="UTF-8"?>

<!-- generated on 2022-10-16 15:17:10 by Eclipse SUMO netconvert Version 1.14.1
<configuration xmlns:xsi="http://www.w3.org/2001/XMLSchema-instance" xsi:noNamespaceSchemaLocation="http://sumo.dlr.de/xsd/netconvertConfiguration.xsd">

    <input>
        <type-files value="/usr/share/sumo/data/typemap/osmNetconvert.typ.xml"/>
        <osm-files value="osm_bbox.osm.xml.gz"/>
    </input>

    <output>
        <output-file value="osm.net.xml"/>
        <output.street-names value="true"/>
        <output.original-names value="true"/>
    </output>

    <projection>
        <proj.utm value="true"/>
    </projection>

    <processing>
        <geometry.remove value="true"/>
        <roundabouts.guess value="true"/>
    </processing>

    <tls_building>
        <tls.discard-simple value="true"/>
        <tls.join value="true"/>
        <tls.guess-signals value="true"/>
        <tls.default-type value="actuated"/>
    </tls_building>

    <ramp_guessing>
        <ramps.guess value="true"/>
    </ramp_guessing>

    <junctions>
        <junctions.join value="true"/>
        <junctions.corner-detail value="5"/>
    </junctions>

    <report>
        <verbose value="true"/>
    </report>

</configuration>
-->

<net version="1.9" junctionCornerDetail="5" limitTurnSpeed="5.50" xmlns:xsi="http://www.w3.org/2001/XMLSchema-instance" xsi:noNamespaceSchemaLocation="http://sumo.dlr.de/xsd/net_file.xsd">

    <location netOffset="-651472.62,-4946180.59" convBoundary="0.00,0.00,2753.94,1689.58" origBoundary="10.910701,44.652634,10.945217,44.668175" projParameter="+proj=utm +zone=32 +ellps=WGS84 +datum=WGS84 +units=m +no_defs"/>

    <type id="highway.bridleway" priority="1" numLanes="1" speed="2.78" allow="pedestrian" oneway="1" width="2.00"/>
    <type id="highway.bus_guideway" priority="1" numLanes="1" speed="27.78" allow="bus" oneway="1"/>
    <type id="highway.cycleway" priority="1" numLanes="1" speed="5.56" allow="bicycle" oneway="0" width="1.00"/>
    <type id="highway.footway" priority="1" numLanes="1" speed="2.78" allow="pedestrian" oneway="1" width="2.00"/>
    <type id="highway.ford" priority="1" numLanes="1" speed="2.78" allow="army" oneway="0"/>
    <type id="highway.living_street" priority="2" numLanes="1" speed="2.78" disallow="tram rail_urban rail rail_electric rail_fast ship" oneway="0"/>
    <type id="highway.motorway" priority="14" numLanes="2" speed="39.44" allow="private emergency authority army vip passenger hov taxi bus coach delivery truck trailer motorcycle evehicle custom1 custom2" oneway="1"/>
    <type id="highway.motorway_link" priority="9" numLanes="1" speed="22.22" allow="private emergency authority army vip passenger hov taxi bus coach delivery truck trailer motorcycle evehicle custom1 custom2" oneway="1"/>
    <type id="highway.path" priority="1" numLanes="1" speed="5.56" allow="pedestrian bicycle" oneway="0" width="2.00"/>
    <type id="highway.pedestrian" priority="1" numLanes="1" speed="2.78" allow="pedestrian" oneway="1" width="2.00"/>
    <type id="highway.primary" priority="12" numLanes="2" speed="27.78" disallow="tram rail_urban rail rail_electric rail_fast ship" oneway="0"/>
    <type id="highway.primary_link" priority="7" numLanes="1" speed="22.22" disallow="tram rail_urban rail rail_electric rail_fast ship" oneway="0"/>
    <type id="highway.raceway" priority="15" numLanes="2" speed="83.33" allow="vip" oneway="0"/>
    <type id="highway.residential" priority="3" numLanes="1" speed="13.89" disallow="tram rail_urban rail rail_electric rail_fast ship" oneway="0"/>
    <type id="highway.secondary" priority="11" numLanes="1" speed="27.78" disallow="tram rail_urban rail rail_electric rail_fast ship" oneway="0"/>
    <type id="highway.secondary_link" priority="6" numLanes="1" speed="22.22" disallow="tram rail_urban rail rail_electric rail_fast ship" oneway="0"/>
    <type id="highway.service" priority="1" numLanes="1" speed="5.56" allow="pedestrian delivery bicycle" oneway="0"/>
    <type id="highway.stairs" priority="1" numLanes="1" speed="1.39" allow="pedestrian" oneway="1" width="2.00"/>
    <type id="highway.step" priority="1" numLanes="1" speed="1.39" allow="pedestrian" oneway="1" width="2.00"/>
    <type id="highway.steps" priority="1" numLanes="1" speed="1.39" allow="pedestrian" oneway="1" width="2.00"/>
    <type id="highway.tertiary" priority="10" numLanes="1" speed="22.22" disallow="tram rail_urban rail rail_electric rail_fast ship" oneway="0"/>
    <type id="highway.tertiary_link" priority="5" numLanes="1" speed="22.22" disallow="tram rail_urban rail rail_electric rail_fast ship" oneway="0"/>
    <type id="highway.track" priority="1" numLanes="1" speed="5.56" allow="pedestrian motorcycle moped bicycle" oneway="0"/>
    <type id="highway.trunk" priority="13" numLanes="2" speed="27.78" disallow="pedestrian bicycle tram rail_urban rail rail_electric rail_fast ship" oneway="0"/>
    <type id="highway.trunk_link" priority="8" numLanes="1" speed="22.22" disallow="pedestrian bicycle tram rail_urban rail rail_electric rail_fast ship" oneway="0"/>
    <type id="highway.unclassified" priority="4" numLanes="1" speed="13.89" disallow="tram rail_urban rail rail_electric rail_fast ship" oneway="0"/>
    <type id="highway.unsurfaced" priority="1" numLanes="1" speed="8.33" disallow="tram rail_urban rail rail_electric rail_fast ship" oneway="0"/>
    <type id="railway.highspeed" priority="21" numLanes="1" speed="69.44" allow="rail_fast" oneway="1"/>
    <type id="railway.light_rail" priority="19" numLanes="1" speed="27.78" allow="rail_urban" oneway="1"/>
    <type id="railway.preserved" priority="16" numLanes="1" speed="27.78" allow="rail" oneway="1"/>
    <type id="railway.rail" priority="20" numLanes="1" speed="44.44" allow="rail" oneway="1"/>
    <type id="railway.subway" priority="18" numLanes="1" speed="27.78" allow="rail_urban" oneway="1"/>
    <type id="railway.tram" priority="17" numLanes="1" speed="13.89" allow="tram" oneway="1"/>

    <edge id=":1076629757_0" function="internal">
        <lane id=":1076629757_0_0" index="0" disallow="tram rail_urban rail rail_electric rail_fast ship" speed="9.09" length="6.24" shape="1603.29,596.90 1602.38,598.52 1601.77,599.71 1601.55,600.95 1601.79,602.72"/>
    </edge>
    <edge id=":1076629757_1" function="internal">
        <lane id=":1076629757_1_0" index="0" disallow="tram rail_urban rail rail_electric rail_fast ship" speed="20.17" length="6.33" shape="1599.02,597.10 1600.07,598.66 1600.78,599.75 1601.31,600.93 1601.79,602.72"/>
    </edge>
    <edge id=":1076629771_0" function="internal">
        <lane id=":1076629771_0_0" index="0" disallow="tram rail_urban rail rail_electric rail_fast ship" speed="13.91" length="7.23" shape="1563.86,603.29 1564.08,601.20 1563.88,599.75 1563.36,598.32 1562.65,596.29"/>
    </edge>
    <edge id=":1076629771_1" function="internal">
        <lane id=":1076629771_1_0" index="0" disallow="tram rail_urban rail rail_electric rail_fast ship" speed="11.31" length="7.38" shape="1563.86,603.29 1564.23,601.13 1564.60,599.64 1565.32,598.32 1566.73,596.70"/>
    </edge>
    <edge id=":1076629793_0" function="internal">
        <lane id=":1076629793_0_0" index="0" disallow="tram rail_urban rail rail_electric rail_fast ship" speed="6.97" length="5.31" shape="1908.48,281.43 1909.49,281.98 1910.93,282.68 1912.36,283.22 1913.39,283.27"/>
    </edge>
    <edge id=":1076629793_1" function="internal">
        <lane id=":1076629793_1_0" index="0" disallow="tram rail_urban rail rail_electric rail_fast ship" speed="13.89" length="5.56" shape="1908.90,286.44 1910.05,285.27 1910.92,284.54 1911.90,283.97 1913.39,283.27"/>
    </edge>
    <edge id=":1113698562_0" function="internal">
        <lane id=":1113698562_0_0" index="0" allow="rail rail_electric rail_fast" speed="16.67" length="2.99" shape="1455.10,247.03 1452.14,247.42"/>
    </edge>
    <edge id=":1113698562_1" function="internal">
        <lane id=":1113698562_1_0" index="0" allow="rail rail_electric rail_fast" speed="44.44" length="3.01" shape="1452.12,247.29 1455.13,247.25"/>
    </edge>
    <edge id=":1113698573_0" function="internal">
        <lane id=":1113698573_0_0" index="0" allow="rail rail_electric rail_fast" speed="44.44" length="3.00" shape="1723.65,223.53 1721.12,225.15"/>
    </edge>
    <edge id=":1113698573_1" function="internal">
        <lane id=":1113698573_1_0" index="0" allow="rail" speed="2.82" length="1.58" shape="1721.19,225.25 1721.67,224.90 1721.82,224.77 1721.64,224.85 1721.12,225.15"/>
    </edge>
    <edge id=":1113698629_0" function="internal">
        <lane id=":1113698629_0_0" index="0" allow="rail rail_electric rail_fast" speed="44.44" length="2.48" shape="1782.23,183.36 1780.16,184.72"/>
    </edge>
    <edge id=":1113698639_0" function="internal">
        <lane id=":1113698639_0_0" index="0" allow="rail rail_electric rail_fast" speed="44.44" length="26.58" shape="1841.88,145.83 1837.03,148.54 1830.38,152.48 1823.78,156.51 1819.07,159.46"/>
    </edge>
    <edge id=":1113698639_1" function="internal">
        <lane id=":1113698639_1_0" index="0" allow="rail rail_electric rail_fast" speed="44.44" length="26.57" shape="1841.88,145.83 1817.50,156.39"/>
    </edge>
    <edge id=":1256984420_0" function="internal">
        <lane id=":1256984420_0_0" index="0" allow="pedestrian bicycle" speed="5.56" length="2.95" width="1.00" shape="1613.12,164.46 1613.54,167.38"/>
    </edge>
    <edge id=":1256984420_1" function="internal">
        <lane id=":1256984420_1_0" index="0" allow="pedestrian bicycle" speed="2.04" length="1.27" width="1.00" shape="1613.12,164.46 1612.93,164.87 1612.71,165.04 1612.44,164.95 1612.26,164.76"/>
    </edge>
    <edge id=":1256984420_4" function="internal">
        <lane id=":1256984420_4_0" index="0" allow="pedestrian bicycle" speed="2.04" length="0.19" width="1.00" shape="1612.26,164.76 1612.13,164.62"/>
    </edge>
    <edge id=":1256984420_2" function="internal">
        <lane id=":1256984420_2_0" index="0" allow="pedestrian bicycle" speed="5.56" length="2.91" width="1.00" shape="1612.55,167.51 1612.13,164.62"/>
    </edge>
    <edge id=":1256984420_3" function="internal">
        <lane id=":1256984420_3_0" index="0" allow="pedestrian bicycle" speed="2.04" length="1.22" width="1.00" shape="1612.55,167.51 1612.75,167.10 1612.98,166.95 1613.24,167.04 1613.38,167.20"/>
    </edge>
    <edge id=":1256984420_5" function="internal">
        <lane id=":1256984420_5_0" index="0" allow="pedestrian bicycle" speed="2.04" length="0.24" width="1.00" shape="1613.38,167.20 1613.54,167.38"/>
    </edge>
    <edge id=":1256984463_0" function="internal">
        <lane id=":1256984463_0_0" index="0" allow="pedestrian bicycle" speed="2.04" length="1.46" width="1.00" shape="1593.82,52.13 1594.01,51.72 1594.23,51.56 1594.50,51.64 1594.81,51.97"/>
    </edge>
    <edge id=":1352897005_0" function="internal">
        <lane id=":1352897005_0_0" index="0" allow="pedestrian bus delivery bicycle" speed="3.65" length="4.67" shape="1588.22,52.36 1588.83,51.06 1589.56,50.54 1590.42,50.81 1591.39,51.88"/>
    </edge>
    <edge id=":1352897015_0" function="internal">
        <lane id=":1352897015_0_0" index="0" allow="pedestrian bus delivery bicycle" speed="5.42" length="6.06" shape="1608.34,164.19 1608.19,165.30 1607.39,166.17 1605.93,166.82 1603.81,167.23"/>
    </edge>
    <edge id=":1352897015_1" function="internal">
        <lane id=":1352897015_1_0" index="0" allow="pedestrian bus delivery bicycle" speed="3.47" length="1.85" shape="1603.42,164.06 1605.18,164.66"/>
    </edge>
    <edge id=":1359255735_0" function="internal">
        <lane id=":1359255735_0_0" index="0" allow="pedestrian delivery bicycle" speed="5.00" length="5.05" shape="1961.47,171.17 1960.22,170.56 1959.09,170.50 1958.08,171.00 1957.18,172.06"/>
    </edge>
    <edge id=":1359255735_1" function="internal">
        <lane id=":1359255735_1_0" index="0" disallow="tram rail_urban rail rail_electric rail_fast ship" speed="13.89" length="9.37" shape="1961.47,171.17 1953.81,165.79"/>
    </edge>
    <edge id=":1359255735_2" function="internal">
        <lane id=":1359255735_2_0" index="0" disallow="tram rail_urban rail rail_electric rail_fast ship" speed="13.89" length="9.28" shape="1955.68,163.19 1963.28,168.53"/>
    </edge>
    <edge id=":1359255735_3" function="internal">
        <lane id=":1359255735_3_0" index="0" allow="pedestrian delivery bicycle" speed="7.01" length="3.08" shape="1955.68,163.19 1957.60,165.07 1957.76,165.44"/>
    </edge>
    <edge id=":1359255735_7" function="internal">
        <lane id=":1359255735_7_0" index="0" allow="pedestrian delivery bicycle" speed="7.01" length="7.03" shape="1957.76,165.44 1958.49,167.17 1958.35,169.50 1957.18,172.06"/>
    </edge>
    <edge id=":1359255735_4" function="internal">
        <lane id=":1359255735_4_0" index="0" allow="pedestrian delivery bicycle" speed="5.23" length="5.19" shape="1954.47,170.36 1955.09,169.02 1955.19,167.81 1954.76,166.73 1953.81,165.79"/>
    </edge>
    <edge id=":1359255735_5" function="internal">
        <lane id=":1359255735_5_0" index="0" allow="pedestrian delivery bicycle" speed="6.83" length="10.35" shape="1954.47,170.36 1956.32,168.19 1958.40,167.16 1960.72,167.27 1963.28,168.53"/>
    </edge>
    <edge id=":1359255735_6" function="internal">
        <lane id=":1359255735_6_0" index="0" allow="pedestrian delivery bicycle" speed="3.65" length="4.67" shape="1954.47,170.36 1955.79,169.77 1956.68,169.86 1957.14,170.62 1957.18,172.06"/>
    </edge>
    <edge id=":1419841375_0" function="internal">
        <lane id=":1419841375_0_0" index="0" allow="rail" speed="44.44" length="53.54" shape="1691.46,230.18 1699.96,225.36 1714.58,216.69 1729.14,207.90 1737.43,202.72"/>
    </edge>
    <edge id=":1419841375_1" function="internal">
        <lane id=":1419841375_1_0" index="0" allow="rail rail_electric rail_fast" speed="44.44" length="53.63" shape="1691.46,230.18 1739.14,205.63"/>
    </edge>
    <edge id=":1419841375_2" function="internal">
        <lane id=":1419841375_2_0" index="0" allow="rail" speed="44.44" length="53.71" shape="1693.15,233.13 1737.43,202.72"/>
    </edge>
    <edge id=":1419841375_3" function="internal">
        <lane id=":1419841375_3_0" index="0" allow="rail" speed="44.44" length="53.59" shape="1693.15,233.13 1701.46,227.97 1716.04,219.19 1730.67,210.51 1739.14,205.63"/>
    </edge>
    <edge id=":1419841384_0" function="internal">
        <lane id=":1419841384_0_0" index="0" allow="rail rail_electric rail_fast" speed="43.06" length="3.00" shape="1461.58,216.66 1458.61,217.07"/>
    </edge>
    <edge id=":1419841387_0" function="internal">
        <lane id=":1419841387_0_0" index="0" allow="rail" speed="44.44" length="2.99" shape="1420.62,217.20 1417.66,217.62"/>
    </edge>
    <edge id=":1419841387_1" function="internal">
        <lane id=":1419841387_1_0" index="0" allow="rail" speed="44.44" length="3.01" shape="1417.63,217.40 1420.64,217.37"/>
    </edge>
    <edge id=":1419841388_0" function="internal">
        <lane id=":1419841388_0_0" index="0" allow="rail" speed="44.44" length="32.51" shape="1334.95,220.61 1367.18,216.35"/>
    </edge>
    <edge id=":1419841388_1" function="internal">
        <lane id=":1419841388_1_0" index="0" allow="rail" speed="44.44" length="19.99" shape="1347.75,221.02 1352.14,219.86 1357.42,218.45 1362.73,217.16 1367.18,216.35"/>
    </edge>
    <edge id=":1419841402_0" function="internal">
        <lane id=":1419841402_0_0" index="0" allow="rail rail_electric rail_fast" speed="44.44" length="2.94" shape="1685.97,232.88 1688.61,231.58"/>
    </edge>
    <edge id=":1419841409_0" function="internal">
        <lane id=":1419841409_0_0" index="0" allow="rail" speed="44.44" length="24.15" shape="1323.99,226.28 1329.08,225.36 1335.81,223.88 1342.53,222.30 1347.56,221.07"/>
    </edge>
    <edge id=":1419841409_1" function="internal">
        <lane id=":1419841409_1_0" index="0" allow="rail" speed="44.44" length="36.61" shape="1323.99,226.28 1360.26,221.30"/>
    </edge>
    <edge id=":1419841426_0" function="internal">
        <lane id=":1419841426_0_0" index="0" allow="rail rail_electric rail_fast" speed="44.44" length="2.86" shape="1690.78,242.45 1688.28,243.84"/>
    </edge>
    <edge id=":1419841426_1" function="internal">
        <lane id=":1419841426_1_0" index="0" allow="rail" speed="2.77" length="1.46" shape="1688.35,243.95 1688.80,243.63 1688.94,243.51 1688.76,243.58 1688.28,243.84"/>
    </edge>
    <edge id=":1419841443_0" function="internal">
        <lane id=":1419841443_0_0" index="0" allow="rail" speed="44.44" length="33.33" shape="1140.97,230.47 1134.59,232.22 1124.93,234.99 1115.30,237.88 1109.02,239.96"/>
    </edge>
    <edge id=":1419841443_1" function="internal">
        <lane id=":1419841443_1_0" index="0" allow="rail" speed="44.44" length="33.31" shape="1139.83,227.28 1109.02,239.96"/>
    </edge>
    <edge id=":1419841457_0" function="internal">
        <lane id=":1419841457_0_0" index="0" allow="rail rail_electric rail_fast" speed="44.44" length="2.96" shape="1414.54,248.79 1417.47,248.42"/>
    </edge>
    <edge id=":1419841457_1" function="internal">
        <lane id=":1419841457_1_0" index="0" allow="rail rail_electric rail_fast" speed="44.44" length="2.96" shape="1414.54,248.79 1415.41,248.68 1416.01,248.62 1416.61,248.58 1417.48,248.55"/>
    </edge>
    <edge id=":1419841476_0" function="internal">
        <lane id=":1419841476_0_0" index="0" allow="rail" speed="44.44" length="2.87" shape="1649.04,268.76 1651.65,267.58"/>
    </edge>
    <edge id=":1419841503_0" function="internal">
        <lane id=":1419841503_0_0" index="0" allow="rail" speed="44.44" length="33.93" shape="1080.44,251.13 1049.34,264.71"/>
    </edge>
    <edge id=":1419841503_1" function="internal">
        <lane id=":1419841503_1_0" index="0" allow="rail" speed="44.44" length="33.89" shape="1078.89,248.10 1049.34,264.71"/>
    </edge>
    <edge id=":1419841536_0" function="internal">
        <lane id=":1419841536_0_0" index="0" allow="rail" speed="44.44" length="2.99" shape="1000.51,285.12 997.68,286.10"/>
    </edge>
    <edge id=":1419841610_0" function="internal">
        <lane id=":1419841610_0_0" index="0" allow="rail rail_electric rail_fast" speed="44.44" length="3.00" shape="960.03,338.59 957.10,339.22"/>
    </edge>
    <edge id=":1419841622_0" function="internal">
        <lane id=":1419841622_0_0" index="0" disallow="tram rail_urban rail rail_electric rail_fast ship" speed="13.89" length="9.62" shape="1295.07,362.64 1286.11,359.13"/>
    </edge>
    <edge id=":1419841622_1" function="internal">
        <lane id=":1419841622_1_0" index="0" disallow="tram rail_urban rail rail_electric rail_fast ship" speed="13.89" length="9.56" shape="1287.31,356.16 1296.21,359.65"/>
    </edge>
    <edge id=":1419841622_2" function="internal">
        <lane id=":1419841622_2_0" index="0" allow="rail" speed="8.33" length="11.61" shape="1287.09,363.36 1289.28,360.99 1291.11,359.18 1293.05,357.47 1295.55,355.43"/>
    </edge>
    <edge id=":1419841657_0" function="internal">
        <lane id=":1419841657_0_0" index="0" disallow="tram rail_urban rail rail_electric rail_fast ship" speed="13.89" length="5.81" shape="1427.92,395.89 1422.23,394.74"/>
    </edge>
    <edge id=":1419841657_1" function="internal">
        <lane id=":1419841657_1_0" index="0" allow="pedestrian delivery bicycle" speed="5.19" length="4.86" shape="1426.59,386.13 1426.66,387.44 1427.13,388.45 1427.98,389.18 1429.21,389.62"/>
    </edge>
    <edge id=":1419841657_2" function="internal">
        <lane id=":1419841657_2_0" index="0" disallow="tram rail_urban rail rail_electric rail_fast ship" speed="13.89" length="5.82" shape="1422.86,391.60 1428.57,392.75"/>
    </edge>
    <edge id=":1669119962_0" function="internal">
        <lane id=":1669119962_0_0" index="0" allow="rail" speed="44.44" length="31.40" shape="1335.78,116.14 1329.47,116.51 1320.10,117.06 1310.73,117.70 1304.46,118.37"/>
    </edge>
    <edge id=":1669119962_1" function="internal">
        <lane id=":1669119962_1_0" index="0" allow="rail" speed="44.44" length="31.41" shape="1335.38,112.85 1304.46,118.37"/>
    </edge>
    <edge id=":1669120009_0" function="internal">
        <lane id=":1669120009_0_0" index="0" allow="rail" speed="44.44" length="36.80" shape="1297.17,123.05 1260.56,126.82"/>
    </edge>
    <edge id=":1669120009_1" function="internal">
        <lane id=":1669120009_1_0" index="0" allow="rail" speed="44.44" length="36.71" shape="1296.59,119.74 1260.56,126.82"/>
    </edge>
    <edge id=":1669120051_0" function="internal">
        <lane id=":1669120051_0_0" index="0" allow="rail" speed="44.44" length="3.00" shape="1230.97,133.63 1228.07,134.38"/>
    </edge>
    <edge id=":1669120051_1" function="internal">
        <lane id=":1669120051_1_0" index="0" allow="rail" speed="44.44" length="3.00" shape="1230.94,133.53 1228.07,134.38"/>
    </edge>
    <edge id=":1669120325_0" function="internal">
        <lane id=":1669120325_0_0" index="0" allow="rail" speed="44.44" length="27.34" shape="976.79,274.42 971.85,277.22 964.96,281.27 958.11,285.39 953.31,288.41"/>
    </edge>
    <edge id=":1669120325_1" function="internal">
        <lane id=":1669120325_1_0" index="0" allow="rail" speed="44.44" length="27.30" shape="974.84,271.63 953.31,288.41"/>
    </edge>
    <edge id=":1669120368_0" function="internal">
        <lane id=":1669120368_0_0" index="0" allow="rail" speed="44.44" length="29.29" shape="946.95,303.41 919.77,314.31"/>
    </edge>
    <edge id=":1669120368_1" function="internal">
        <lane id=":1669120368_1_0" index="0" allow="rail" speed="44.44" length="29.26" shape="945.47,300.35 940.25,303.27 932.71,307.51 925.11,311.65 919.77,314.31"/>
    </edge>
    <edge id=":1669120375_0" function="internal">
        <lane id=":1669120375_0_0" index="0" allow="rail" speed="44.44" length="2.83" shape="902.84,321.71 900.31,322.97"/>
    </edge>
    <edge id=":1669120375_1" function="internal">
        <lane id=":1669120375_1_0" index="0" allow="rail" speed="44.44" length="2.82" shape="902.75,321.57 902.05,322.02 901.56,322.32 901.06,322.60 900.31,322.97"/>
    </edge>
    <edge id=":1786899256_0" function="internal">
        <lane id=":1786899256_0_0" index="0" disallow="tram rail_urban rail rail_electric rail_fast ship" speed="7.35" length="8.09" shape="1567.38,589.03 1568.91,590.25 1570.66,590.89 1572.65,590.95 1574.86,590.42"/>
    </edge>
    <edge id=":1786899256_1" function="internal">
        <lane id=":1786899256_1_0" index="0" disallow="tram rail_urban rail rail_electric rail_fast ship" speed="16.47" length="9.62" shape="1567.31,596.12 1569.25,594.02 1570.65,592.59 1572.26,591.50 1574.86,590.42"/>
    </edge>
    <edge id=":2012904697_0" function="internal">
        <lane id=":2012904697_0_0" index="0" allow="pedestrian delivery bicycle" speed="5.56" length="11.53" shape="1398.92,365.39 1396.53,363.34 1396.28,361.59 1398.18,360.14 1402.23,358.99"/>
    </edge>
    <edge id=":2012904697_1" function="internal">
        <lane id=":2012904697_1_0" index="0" allow="pedestrian delivery bicycle" speed="3.67" length="4.73" shape="1398.92,365.39 1398.58,363.97 1398.83,363.10 1399.67,362.78 1401.12,363.00"/>
    </edge>
    <edge id=":2012904697_2" function="internal">
        <lane id=":2012904697_2_0" index="0" allow="pedestrian delivery bicycle" speed="5.56" length="11.23" shape="1391.10,359.95 1394.25,360.08 1396.70,359.95 1399.13,359.59 1402.23,358.99"/>
    </edge>
    <edge id=":2012904697_3" function="internal">
        <lane id=":2012904697_3_0" index="0" allow="pedestrian delivery bicycle" speed="5.56" length="10.66" shape="1391.10,359.95 1394.17,360.19 1396.39,360.60 1398.47,361.45 1401.12,363.00"/>
    </edge>
    <edge id=":2012904703_0" function="internal">
        <lane id=":2012904703_0_0" index="0" allow="pedestrian delivery bicycle" speed="5.56" length="6.28" shape="1430.63,373.50 1429.29,373.74 1428.27,374.56 1427.59,375.97 1427.24,377.97"/>
    </edge>
    <edge id=":2012904703_1" function="internal">
        <lane id=":2012904703_1_0" index="0" allow="pedestrian delivery bicycle" speed="5.56" length="6.28" shape="1430.63,373.50 1428.80,373.68 1427.56,374.15 1426.33,374.56 1424.51,374.55"/>
    </edge>
    <edge id=":2012904703_2" function="internal">
        <lane id=":2012904703_2_0" index="0" allow="pedestrian delivery bicycle" speed="5.56" length="7.57" shape="1424.98,371.38 1426.15,371.95 1426.92,373.23 1427.28,375.24 1427.24,377.97"/>
    </edge>
    <edge id=":2012904703_3" function="internal">
        <lane id=":2012904703_3_0" index="0" allow="pedestrian delivery bicycle" speed="3.65" length="4.67" shape="1424.98,371.38 1426.05,372.35 1426.33,373.20 1425.82,373.93 1424.51,374.55"/>
    </edge>
    <edge id=":2021886614_0" function="internal">
        <lane id=":2021886614_0_0" index="0" allow="pedestrian bicycle" speed="2.04" length="1.46" width="1.00" shape="1759.48,2.19 1759.91,2.05 1760.19,2.12 1760.30,2.37 1760.26,2.82"/>
    </edge>
    <edge id=":2021886623_0" function="internal">
        <lane id=":2021886623_0_0" index="0" allow="pedestrian bus delivery bicycle" speed="5.67" length="9.24" shape="1599.06,123.77 1598.30,121.10 1597.00,119.79 1595.15,119.85 1592.76,121.26"/>
    </edge>
    <edge id=":2021886623_1" function="internal">
        <lane id=":2021886623_1_0" index="0" allow="pedestrian bus delivery bicycle" speed="13.89" length="15.38" shape="1599.06,123.77 1596.80,108.55"/>
    </edge>
    <edge id=":2021886623_2" function="internal">
        <lane id=":2021886623_2_0" index="0" allow="pedestrian bus delivery bicycle" speed="3.65" length="1.44" shape="1599.06,123.77 1599.68,122.46"/>
    </edge>
    <edge id=":2021886623_9" function="internal">
        <lane id=":2021886623_9_0" index="0" allow="pedestrian bus delivery bicycle" speed="3.65" length="3.23" shape="1599.68,122.46 1600.41,121.95 1601.26,122.23 1602.23,123.30"/>
    </edge>
    <edge id=":2021886623_3" function="internal">
        <lane id=":2021886623_3_0" index="0" allow="pedestrian bus delivery bicycle" speed="13.89" length="15.40" shape="1599.96,108.07 1602.23,123.30"/>
    </edge>
    <edge id=":2021886623_4" function="internal">
        <lane id=":2021886623_4_0" index="0" allow="pedestrian bus delivery bicycle" speed="10.65" length="3.57" shape="1599.96,108.07 1599.89,111.41 1599.82,111.62"/>
    </edge>
    <edge id=":2021886623_5" function="internal">
        <lane id=":2021886623_5_0" index="0" allow="pedestrian bus delivery bicycle" speed="3.65" length="1.44" shape="1599.96,108.07 1599.35,109.38"/>
    </edge>
    <edge id=":2021886623_10" function="internal">
        <lane id=":2021886623_10_0" index="0" allow="pedestrian bus delivery bicycle" speed="10.65" length="12.16" shape="1599.82,111.62 1598.67,114.73 1596.30,118.01 1592.76,121.26"/>
    </edge>
    <edge id=":2021886623_11" function="internal">
        <lane id=":2021886623_11_0" index="0" allow="pedestrian bus delivery bicycle" speed="3.65" length="3.23" shape="1599.35,109.38 1598.62,109.89 1597.77,109.62 1596.80,108.55"/>
    </edge>
    <edge id=":2021886623_6" function="internal">
        <lane id=":2021886623_6_0" index="0" allow="pedestrian bus delivery bicycle" speed="9.49" length="12.36" shape="1590.78,118.74 1593.69,116.11 1595.67,113.54 1596.70,111.02 1596.80,108.55"/>
    </edge>
    <edge id=":2021886623_7" function="internal">
        <lane id=":2021886623_7_0" index="0" allow="pedestrian bus delivery bicycle" speed="7.41" length="16.79" shape="1590.78,118.74 1595.12,116.18 1598.47,116.08 1600.84,118.46 1602.23,123.30"/>
    </edge>
    <edge id=":2021886623_8" function="internal">
        <lane id=":2021886623_8_0" index="0" allow="pedestrian bus delivery bicycle" speed="3.65" length="4.67" shape="1590.78,118.74 1592.22,118.63 1593.03,119.01 1593.21,119.89 1592.76,121.26"/>
    </edge>
    <edge id=":2021886629_0" function="internal">
        <lane id=":2021886629_0_0" index="0" allow="pedestrian bicycle" speed="5.56" length="5.96" width="1.00" shape="1605.13,115.27 1606.09,121.15"/>
    </edge>
    <edge id=":2021886629_1" function="internal">
        <lane id=":2021886629_1_0" index="0" allow="pedestrian bicycle" speed="2.04" length="1.25" width="1.00" shape="1605.13,115.27 1604.94,115.68 1604.72,115.84 1604.45,115.76 1604.29,115.58"/>
    </edge>
    <edge id=":2021886629_4" function="internal">
        <lane id=":2021886629_4_0" index="0" allow="pedestrian bicycle" speed="2.04" length="0.21" width="1.00" shape="1604.29,115.58 1604.14,115.43"/>
    </edge>
    <edge id=":2021886629_2" function="internal">
        <lane id=":2021886629_2_0" index="0" allow="pedestrian bicycle" speed="5.56" length="5.96" width="1.00" shape="1605.10,121.31 1604.14,115.43"/>
    </edge>
    <edge id=":2021886629_3" function="internal">
        <lane id=":2021886629_3_0" index="0" allow="pedestrian bicycle" speed="2.04" length="1.25" width="1.00" shape="1605.10,121.31 1605.29,120.90 1605.51,120.74 1605.78,120.82 1605.94,120.99"/>
    </edge>
    <edge id=":2021886629_5" function="internal">
        <lane id=":2021886629_5_0" index="0" allow="pedestrian bicycle" speed="2.04" length="0.21" width="1.00" shape="1605.94,120.99 1606.09,121.15"/>
    </edge>
    <edge id=":2021886660_0" function="internal">
        <lane id=":2021886660_0_0" index="0" allow="pedestrian bicycle" speed="5.56" length="12.18" width="1.00" shape="1617.89,168.05 1615.22,170.01 1612.90,171.53 1610.49,172.92 1607.57,174.49"/>
    </edge>
    <edge id=":2021886660_1" function="internal">
        <lane id=":2021886660_1_0" index="0" allow="pedestrian bicycle" speed="5.56" length="6.58" width="1.00" shape="1617.89,168.05 1615.31,169.87 1613.15,170.96 1612.18,171.22"/>
    </edge>
    <edge id=":2021886660_2" function="internal">