<?xml version="1.0" encoding="UTF-8"?>

<!-- generated on 2022-10-16 15:17:11 by Eclipse SUMO polyconvert Version 1.14.1
<configuration xmlns:xsi="http://www.w3.org/2001/XMLSchema-instance" xsi:noNamespaceSchemaLocation="http://sumo.dlr.de/xsd/polyconvertConfiguration.xsd">

    <input>
        <net-file value="osm.net.xml"/>
        <osm-files value="osm_bbox.osm.xml.gz"/>
        <osm.keep-full-type value="true"/>
        <type-file value="/usr/share/sumo/data/typemap/osmPolyconvert.typ.xml"/>
    </input>

    <output>
        <output-file value="osm.poly.xml"/>
    </output>

    <report>
        <verbose value="true"/>
    </report>

</configuration>
-->

<additional xmlns:xsi="http://www.w3.org/2001/XMLSchema-instance" xsi:noNamespaceSchemaLocation="http://sumo.dlr.de/xsd/additional_file.xsd">
    <location netOffset="-651472.62,-4946180.59" convBoundary="-0.00,-1038.83,2753.94,1749.07" origBoundary="10.910701,44.643267,10.945217,44.668175" projParameter="+proj=utm +zone=32 +ellps=WGS84 +datum=WGS84 +units=m +no_defs"/>

    <poly id="167113930" type="building.yes" color="255,230,230" fill="1" layer="-1.00" shape="2549.068882,466.715833 2550.102213,472.620018 2553.338137,471.985838 2558.330766,471.204595 2558.881409,473.729592 2557.336127,473.992841 2557.972395,476.586565 2565.446941,475.186519 2563.362561,464.122391 2552.300836,466.248275 2549.068882,466.715833"/>
    <poly id="167114428" type="building.yes" color="255,230,230" fill="1" layer="-1.00" shape="1869.094629,189.519426 1872.335410,194.030984 1874.877072,197.581228 1887.720691,188.238765 1895.575461,182.523460 1889.932018,173.953676 1888.244318,170.857157 1882.883966,176.765048 1880.599314,179.767283 1879.199414,180.923298 1869.094629,189.519426"/>
    <poly id="167114596" type="building.yes" color="255,230,230" fill="1" layer="-1.00" shape="1999.917938,229.136365 2011.933952,255.640692 2012.660471,255.113345 2029.729656,244.560039 2030.196650,244.271045 2034.177068,241.687039 2028.911381,236.260361 2025.985718,237.858016 2018.186882,242.551969 2010.685313,224.379534 1999.917938,229.136365"/>
    <poly id="167114753" type="building.yes" color="255,230,230" fill="1" layer="-1.00" shape="2517.452220,529.436848 2518.771210,536.337023 2532.350633,533.748723 2531.433003,528.980974 2528.788051,529.451420 2527.688373,523.667916 2522.095066,524.690495 2522.264167,525.583682 2519.777783,526.057911 2520.329214,528.883013 2517.452220,529.436848"/>
    <poly id="167114861" type="building.yes" color="255,230,230" fill="1" layer="-1.00" shape="2137.375669,215.208869 2140.228044,221.700818 2138.940678,222.125903 2147.246115,238.839399 2153.778061,235.715951 2154.806194,237.852137 2158.940765,236.127681 2148.526178,212.695368 2143.956567,214.365030 2143.315102,212.982705 2137.375669,215.208869"/>
    <poly id="167115281" type="building.yes" color="255,230,230" fill="1" layer="-1.00" shape="2533.925212,482.337421 2535.370930,491.908090 2539.399427,491.303912 2541.041169,490.987386 2540.717519,488.923495 2539.815213,484.178340 2545.546520,483.025691 2542.921040,468.036381 2536.200760,469.409976 2538.292801,481.485692 2537.620982,481.714195 2533.925212,482.337421"/>
    <poly id="167116369" type="building.yes" color="255,230,230" fill="1" layer="-1.00" shape="2533.692440,118.011113 2536.685796,138.877601 2550.279067,140.735413 2549.692491,131.062969 2543.595380,131.573385 2543.432122,129.768952 2544.474519,129.638197 2544.097503,126.483820 2543.160300,126.528167 2543.012827,126.391279 2542.514343,120.677682 2540.622409,116.509123 2533.692440,118.011113"/>
    <poly id="167119332" type="building.industrial" color="255,230,230" fill="1" layer="-1.00" shape="1840.634294,171.950168 1854.977517,196.364307 1862.847375,191.682960 1862.975575,191.963863 1868.392086,188.702516 1869.094629,189.519426 1879.199414,180.923298 1880.599314,179.767283 1882.883966,176.765048 1881.287855,176.160331 1881.385862,175.373535 1881.137861,173.789404 1880.079798,172.241619 1877.939092,169.178809 1873.793267,172.047958 1865.216529,157.373464 1865.113717,157.359910 1853.929675,163.963200 1840.634294,171.950168"/>
    <poly id="167119507" type="building.yes" color="255,230,230" fill="1" layer="-1.00" shape="1968.922596,131.927149 1985.017425,143.034786 1994.078546,129.957163 1997.821353,132.368973 2010.623968,114.078667 2010.413832,113.573527 2011.982152,113.010603 2012.980786,116.057444 2017.687857,114.279809 2019.799567,113.551964 2028.539771,110.314129 2027.349780,106.973765 2031.671786,105.375937 2032.136739,106.842971 2063.793503,113.752510 2068.035159,94.503107 2043.254072,88.701631 1982.618606,111.090579 1982.962232,111.987893 1968.922596,131.927149"/>
    <poly id="167119821" type="building.yes" color="255,230,230" fill="1" layer="-1.00" shape="2016.473966,191.762873 2043.650390,210.258266 2040.486156,214.884482 2048.401921,220.296335 2062.457889,213.361500 2061.844426,212.135451 2092.265043,197.264867 2083.811653,180.092244 2053.069867,195.121956 2054.583049,198.214375 2052.127001,199.411945 2024.232181,180.432646 2016.473966,191.762873"/>
    <poly id="167120005" type="building.yes" color="255,230,230" fill="1" layer="-1.00" shape="1855.421606,206.066601 1859.812958,212.239273 1876.731770,236.092186 1889.589521,253.558003 1890.395938,254.677470 1898.844782,249.331934 1894.926866,243.603931 1899.664379,240.204236 1900.387007,241.177228 1904.384793,238.193438 1897.632930,228.863781 1892.466484,232.620072 1892.895994,233.241559 1889.493359,235.550390 1885.471033,229.875487 1882.526566,225.582127 1883.599288,224.840694 1878.815199,218.169649 1878.630708,217.920753 1865.135320,199.572909 1856.986157,204.992289 1855.421606,206.066601"/>
    <poly id="167120630" type="building.yes" color="255,230,230" fill="1" layer="-1.00" shape="2556.680043,561.736994 2558.976227,569.905297 2563.194199,568.672129 2565.588408,577.053948 2575.463377,574.121784 2574.775056,571.715761 2574.628407,571.212113 2578.638920,570.029580 2577.811085,567.153423 2580.719270,566.289154 2579.379092,561.611351 2577.437923,562.176359 2576.661876,559.457039 2576.441770,558.707122 2577.879743,558.285717 2581.881541,557.136321 2582.108780,557.919752 2585.615574,556.903043 2590.384595,555.516315 2588.975203,550.414509 2588.784126,550.443296 2583.783095,551.246540 2579.278131,551.872672 2577.901218,552.062129 2575.656664,552.375385 2574.780036,552.543428 2576.369108,558.427527 2575.458648,558.683679 2573.254781,559.286883 2572.984738,558.302371 2564.836583,560.675531 2564.203336,561.282842 2563.854042,559.629573 2556.680043,561.736994"/>
    <poly id="167120999" type="amenity.nightclub" color="237,199,199" fill="1" layer="-1.00" shape="1998.570734,154.259929 2021.584343,169.666565 2043.408761,137.286402 2026.072324,125.682314 2020.395079,121.879690 1998.570734,154.259929"/>
    <poly id="167120999#1" type="building.yes" color="255,230,230" fill="1" layer="-1.00" shape="1998.570734,154.259929 2021.584343,169.666565 2043.408761,137.286402 2026.072324,125.682314 2020.395079,121.879690 1998.570734,154.259929"/>
    <poly id="167121535" type="building.yes" color="255,230,230" fill="1" layer="-1.00" shape="2029.127251,167.400588 2058.574762,192.151839 2079.005374,168.018910 2049.557820,143.267568 2029.127251,167.400588"/>
    <poly id="167121592" type="building.yes" color="255,230,230" fill="1" layer="-1.00" shape="2057.597836,266.650781 2062.438333,275.612880 2076.340114,268.485471 2071.779785,259.752307 2057.597836,266.650781"/>
    <poly id="167121747" type="building.yes" color="255,230,230" fill="1" layer="-1.00" shape="2476.690328,184.284146 2495.984960,227.534536 2506.156744,223.153324 2487.245131,179.811997 2476.690328,184.284146"/>
    <poly id="167121828" type="amenity.bank" color="237,199,199" fill="1" layer="-1.00" shape="1961.886163,280.904284 1989.678547,283.476026 1990.803650,270.843435 1962.868773,268.590625 1961.886163,280.904284"/>
    <poly id="167121828#1" type="building.yes" color="255,230,230" fill="1" layer="-1.00" shape="1961.886163,280.904284 1989.678547,283.476026 1990.803650,270.843435 1962.868773,268.590625 1961.886163,280.904284"/>
    <poly id="167121893" type="building.yes" color="255,230,230" fill="1" layer="-1.00" shape="2500.188663,117.712791 2501.392591,130.778731 2504.947626,131.741490 2503.772823,117.453654 2500.188663,117.712791"/>
    <poly id="167122287" type="building.yes" color="255,230,230" fill="1" layer="-1.00" shape="2307.201115,143.992740 2330.152098,196.332291 2339.156673,192.323155 2316.096591,139.903173 2307.201115,143.992740"/>
    <poly id="167122334" type="building.yes" color="255,230,230" fill="1" layer="-1.00" shape="2582.426361,430.822314 2586.992574,437.944423 2598.063095,430.795067 2593.431623,423.415762 2582.426361,430.822314"/>
    <poly id="167122623" type="building.yes" color="255,230,230" fill="1" layer="-1.00" shape="2545.359301,540.460764 2547.330827,551.599998 2560.136938,549.171154 2558.100152,538.108160 2545.359301,540.460764"/>
    <poly id="167122655" type="building.yes" color="255,230,230" fill="1" layer="-1.00" shape="2096.813460,110.702745 2100.337842,119.967019 2107.507114,117.403275 2104.080528,108.030177 2096.813460,110.702745"/>
    <poly id="167123764" type="building.yes" color="255,230,230" fill="1" layer="-1.00" shape="2100.337842,119.967019 2105.409515,133.558238 2112.578247,131.016716 2107.507114,117.403275 2100.337842,119.967019"/>
    <poly id="167124249" type="building.yes" color="255,230,230" fill="1" layer="-1.00" shape="2126.099559,188.299531 2130.373168,199.748949 2137.440349,197.138357 2133.144548,185.621719 2126.099559,188.299531"/>
    <poly id="167124589" type="building.yes" color="255,230,230" fill="1" layer="-1.00" shape="2120.733542,174.078886 2126.099559,188.299531 2133.144548,185.621719 2127.666483,171.442861 2120.733542,174.078886"/>
    <poly id="167124994" type="building.yes" color="255,230,230" fill="1" layer="-1.00" shape="2033.248597,249.044950 2037.033713,254.680973 2041.502259,251.586191 2037.838462,246.186451 2033.248597,249.044950"/>
    <poly id="167125312" type="building.yes" color="255,230,230" fill="1" layer="-1.00" shape="2510.021084,117.924874 2511.564284,132.732755 2525.353257,132.038853 2523.865883,116.554316 2510.021084,117.924874"/>
    <poly id="167125360" type="building.yes" color="255,230,230" fill="1" layer="-1.00" shape="2049.419686,260.932590 2051.454070,265.126607 2056.313267,262.952500 2054.334915,258.737584 2049.419686,260.932590"/>
    <poly id="167125393" type="building.yes" color="255,230,230" fill="1" layer="-1.00" shape="2573.830644,463.271648 2575.423510,472.990325 2584.861970,471.403725 2583.116887,461.748102 2573.830644,463.271648"/>
    <poly id="167125420" type="building.yes" color="255,230,230" fill="1" layer="-1.00" shape="2194.556112,133.265925 2203.106060,155.042371 2213.318174,150.961752 2204.712220,128.872755 2194.556112,133.265925"/>
    <poly id="167125521" type="building.yes" color="255,230,230" fill="1" layer="-1.00" shape="2157.704222,190.040109 2175.523008,234.388022 2185.715160,230.473607 2167.843565,185.679831 2157.704222,190.040109"/>
    <poly id="167125750" type="building.yes" color="255,230,230" fill="1" layer="-1.00" shape="2094.236629,154.032184 2096.697913,160.292527 2101.286309,158.501019 2098.825028,152.240674 2094.236629,154.032184"/>
    <poly id="167126112" type="building.yes" color="255,230,230" fill="1" layer="-1.00" shape="2293.649529,149.383045 2316.928846,202.263852 2325.612020,198.424879 2302.116032,145.650027 2293.649529,149.383045"/>
    <poly id="167126728" type="building.yes" color="255,230,230" fill="1" layer="-1.00" shape="2105.409515,133.558238 2110.095529,146.017739 2117.157470,143.295853 2112.578247,131.016716 2105.409515,133.558238"/>
    <poly id="167126876" type="building.yes" color="255,230,230" fill="1" layer="-1.00" shape="2564.093158,424.827959 2566.776769,429.059865 2570.318060,426.599087 2567.870188,422.461716 2564.093158,424.827959"/>
    <poly id="167127107" type="building.yes" color="255,230,230" fill="1" layer="-1.00" shape="2185.397147,110.408027 2194.556112,133.265925 2204.712220,128.872755 2195.786395,106.220446 2185.397147,110.408027"/>
    <poly id="167127693" type="building.yes" color="255,230,230" fill="1" layer="-1.00" shape="2136.964845,112.690799 2154.480616,157.453775 2164.928974,153.445385 2147.198915,108.688397 2136.964845,112.690799"/>
    <poly id="167128106" type="building.yes" color="255,230,230" fill="1" layer="-1.00" shape="2238.351957,120.447957 2256.230950,164.586363 2266.636023,160.732706 2248.980682,116.199471 2238.351957,120.447957"/>
    <poly id="167128989" type="building.yes" color="255,230,230" fill="1" layer="-1.00" shape="2576.197047,478.477085 2577.090834,483.911141 2585.899484,482.454013 2585.005704,477.019957 2576.197047,478.477085"/>
    <poly id="167129010" type="building.yes" color="255,230,230" fill="1" layer="-1.00" shape="2537.919573,494.147280 2539.255982,501.314621 2548.385974,499.687273 2547.150792,492.600144 2537.919573,494.147280"/>
    <poly id="167129132" type="building.yes" color="255,230,230" fill="1" layer="-1.00" shape="2110.095529,146.017739 2120.733542,174.078886 2127.666483,171.442861 2117.157470,143.295853 2110.095529,146.017739"/>
    <poly id="167129533" type="building.yes" color="255,230,230" fill="1" layer="-1.00" shape="2354.409838,180.771601 2356.868229,186.476265 2366.694534,182.275556 2364.244079,176.571077 2354.409838,180.771601"/>
    <poly id="167130038" type="building.yes" color="255,230,230" fill="1" layer="-1.00" shape="2106.846970,197.911544 2111.527600,208.592614 2123.544407,203.343286 2118.674549,192.279818 2106.846970,197.911544"/>
    <poly id="167131685" type="building.yes" color="255,230,230" fill="1" layer="-1.00" shape="2066.155211,129.213207 2091.525190,193.679555 2107.396458,187.477051 2096.697913,160.292527 2094.236629,154.032184 2082.034534,123.010827 2066.155211,129.213207"/>
    <poly id="167132991" type="building.yes" color="255,230,230" fill="1" layer="-1.00" shape="2566.989250,517.636081 2568.221756,524.834297 2568.750953,527.925621 2591.700856,524.271597 2589.954516,514.004645 2585.296235,514.738262 2566.989250,517.636081"/>
    <poly id="167133424" type="building.yes" color="255,230,230" fill="1" layer="-1.00" shape="2539.613122,89.954867 2562.337890,135.410078 2571.108546,131.240075 2561.242154,111.487878 2558.325350,105.716629 2548.182170,85.591081 2539.613122,89.954867"/>
    <poly id="167133746" type="building.yes" color="255,230,230" fill="1" layer="-1.00" shape="2555.506005,483.874423 2556.053950,487.510801 2555.512429,487.597921 2557.759619,498.488097 2569.638720,496.348370 2567.130094,481.784182 2555.506005,483.874423"/>
    <poly id="167133791" type="building.yes" color="255,230,230" fill="1" layer="-1.00" shape="2570.400361,537.601189 2571.682777,545.367434 2572.091224,547.866813 2573.134350,547.702739 2595.104753,544.203206 2593.358160,533.947361 2570.400361,537.601189"/>
    <poly id="167134471" type="building.yes" color="255,230,230" fill="1" layer="-1.00" shape="2130.373168,199.748949 2132.769383,206.074449 2136.193226,215.558647 2137.375669,215.208869 2143.315102,212.982705 2137.440349,197.138357 2130.373168,199.748949"/>
    <poly id="167135135" type="building.yes" color="255,230,230" fill="1" layer="-1.00" shape="2570.226778,115.981134 2575.776263,126.794432 2596.470864,120.630294 2592.681364,115.193882 2585.357877,105.249657 2576.480296,111.573298 2573.868412,113.311569 2570.226778,115.981134"/>
    <poly id="167135227" type="building.yes" color="255,230,230" fill="1" layer="-1.00" shape="2011.970343,218.374934 2014.595142,221.093631 2028.911381,236.260361 2034.177068,241.687039 2043.956223,235.784227 2019.449773,216.440873 2015.883029,213.633111 2011.970343,218.374934"/>
    <poly id="167135456" type="building.yes" color="255,230,230" fill="1" layer="-1.00" shape="2577.090834,483.911141 2578.932030,495.191766 2587.922227,493.772314 2586.627896,486.505933 2587.105989,486.417304 2586.424619,482.388734 2585.899484,482.454013 2577.090834,483.911141"/>
    <poly id="167136259" type="building.yes" color="255,230,230" fill="1" layer="-1.00" shape="1865.135320,199.572909 1878.630708,217.920753 1894.932690,205.926246 1889.699008,198.811060 1880.736395,205.411458 1874.877072,197.581228 1872.335410,194.030984 1865.135320,199.572909"/>
    <poly id="167136952" type="building.yes" color="255,230,230" fill="1" layer="-1.00" shape="1958.596091,156.533738 2005.467841,188.867312 2015.661656,174.193921 1994.829061,159.817176 1988.834398,155.684722 1968.789842,141.860275 1958.596091,156.533738"/>
    <poly id="167136952#1" type="leisure.pitch" color="207,245,201" fill="1" layer="-2.00" shape="1958.596091,156.533738 2005.467841,188.867312 2015.661656,174.193921 1994.829061,159.817176 1988.834398,155.684722 1968.789842,141.860275 1958.596091,156.533738"/>
    <poly id="167136952#2" type="sport.skateboard" color="79,230,125" fill="1" layer="-2.00" shape="1958.596091,156.533738 2005.467841,188.867312 2015.661656,174.193921 1994.829061,159.817176 1988.834398,155.684722 1968.789842,141.860275 1958.596091,156.533738"/>
    <poly id="167137352" type="building.yes" color="255,230,230" fill="1" layer="-1.00" shape="2524.781086,545.460759 2525.654589,550.082967 2528.019655,549.705879 2528.679664,553.300468 2531.858723,552.720496 2532.623123,556.262002 2538.481485,555.101264 2536.082371,543.262744 2524.781086,545.460759"/>
    <poly id="167137672" type="building.yes" color="255,230,230" fill="1" layer="-1.00" shape="2144.543479,240.064415 2153.390693,258.013389 2158.424190,261.856405 2160.973567,263.072924 2165.991417,263.570133 2154.806194,237.852137 2153.778061,235.715951 2147.246115,238.839399 2144.543479,240.064415"/>
    <poly id="167137934" type="building.yes" color="255,230,230" fill="1" layer="-1.00" shape="2539.261975,520.031516 2541.250452,530.793260 2552.651132,528.753244 2552.512409,528.249786 2555.786624,527.672093 2554.066099,517.983721 2550.625647,518.546337 2550.478730,518.053798 2539.261975,520.031516"/>
    <poly id="167138019" type="building.yes" color="255,230,230" fill="1" layer="-1.00" shape="2128.669541,267.739823 2126.289148,258.413806 2112.237623,262.158768 2119.825601,270.008095 2125.173510,268.634781 2128.669541,267.739823"/>
    <poly id="167138113" type="building.yes" color="255,230,230" fill="1" layer="-1.00" shape="2412.200094,161.963878 2418.567939,177.397901 2421.923735,176.066294 2422.261494,176.541146 2446.386461,165.901324 2440.949460,152.690105 2439.741083,153.128128 2438.674450,150.613084 2412.200094,161.963878"/>
    <poly id="167138723" type="building.yes" color="255,230,230" fill="1" layer="-1.00" shape="1985.004365,196.361407 1995.553546,219.496535 1997.245972,223.393435 2010.988716,217.284632 2011.970343,218.374934 2015.883029,213.633111 2010.940324,209.636767 1989.444872,192.443457 1985.004365,196.361407"/>
    <poly id="167139321" type="building.yes" color="255,230,230" fill="1" layer="-1.00" shape="2570.856378,148.472585 2578.025106,149.932774 2592.220985,145.814350 2588.209428,131.058730 2587.809887,129.515408 2578.580728,132.285150 2574.037652,133.499456 2574.477106,135.032614 2572.224994,135.656903 2570.856378,148.472585"/>
    <poly id="167165366" type="building.yes" color="255,230,230" fill="1" layer="-1.00" shape="1276.936178,692.599625 1285.989371,707.273476 1285.015351,707.872848 1285.175539,708.143381 1286.157749,707.533088 1288.777827,711.796272 1292.722263,709.366586 1291.988738,708.182232 1294.926918,706.373385 1296.821396,709.452406 1297.143251,709.259959 1295.790923,707.071793 1297.296348,706.140443 1296.754198,705.249588 1299.757120,703.386702 1300.383327,704.412918 1305.680724,701.126086 1302.547326,696.094979 1302.249517,696.276880 1300.781679,693.941495 1302.400204,692.923906 1302.132962,692.484126 1300.554341,693.491544 1293.668407,682.103201 1285.703687,687.149727 1284.932093,685.897788 1282.404024,687.471821 1283.175881,688.712651 1276.936178,692.599625"/>
    <poly id="167278284" type="building.yes" color="255,230,230" fill="1" layer="-1.00" shape="1492.571300,696.868278 1501.749371,702.898424 1504.594201,704.699632 1505.589886,703.856289 1506.076099,703.423227 1509.892388,700.379344 1507.296641,697.439251 1516.580447,689.289973 1509.660865,681.012612 1494.969226,693.757459 1492.571300,696.868278"/>
    <poly id="167278285" type="building.yes" color="255,230,230" fill="1" layer="-1.00" shape="2129.464760,728.451715 2135.308737,737.226583 2139.761428,734.453822 2139.664173,734.206992 2142.555024,732.063960 2139.464825,727.244617 2139.789348,726.941129 2137.559108,723.653798 2133.297749,726.720086 2132.843456,726.142448 2129.464760,728.451715"/>
    <poly id="167278289" type="building.yes" color="255,230,230" fill="1" layer="-1.00" shape="2457.708273,640.346902 2458.136907,641.001754 2481.046538,674.635409 2476.456209,677.849242 2486.528218,692.271318 2490.949666,689.153498 2500.190262,702.511024 2507.467021,697.416208 2464.828072,635.515044 2463.788381,636.201596 2457.708273,640.346902"/>
    <poly id="167278290" type="building.yes" color="255,230,230" fill="1" layer="-1.00" shape="2112.396630,488.741173 2120.095921,500.572127 2123.206073,505.225211 2124.460124,507.200050 2136.345547,499.446900 2132.194896,493.179707 2131.568816,493.487140 2127.688523,487.526468 2128.277866,487.095903 2124.226571,480.986681 2112.396630,488.741173"/>
    <poly id="167278291" type="building.yes" color="255,230,230" fill="1" layer="-1.00" shape="1525.227227,667.510505 1532.408665,675.449539 1533.309170,676.615648 1535.471259,674.755183 1534.433080,673.708071 1536.175010,672.171085 1538.111588,674.473172 1539.554911,673.151403 1542.671181,670.190987 1533.713344,660.220395 1525.227227,667.510505"/>
    <poly id="167278293" type="building.yes" color="255,230,230" fill="1" layer="-1.00" shape="2049.541153,722.195020 2056.573973,732.354024 2055.012412,733.306096 2058.055619,737.768618 2068.454039,730.813606 2065.464484,726.430155 2075.100519,720.179471 2069.103954,711.145404 2058.222947,718.377922 2057.423750,716.958511 2049.541153,722.195020"/>
    <poly id="167278300" type="building.yes" color="255,230,230" fill="1" layer="-1.00" shape="1479.696458,424.127892 1491.276345,440.306714 1509.382784,427.431521 1497.802915,411.252667 1479.696458,424.127892"/>
    <poly id="167278305" type="building.yes" color="255,230,230" fill="1" layer="-1.00" shape="1924.780777,593.716295 1927.772618,598.344244 1929.873829,597.049293 1960.052270,642.723761 1968.635474,637.381524 1968.193309,636.626356 1967.594730,636.778856 1935.131212,587.782453 1935.490346,587.357519 1935.034179,586.857653 1924.780777,593.716295"/>
    <poly id="167278308" type="building.yes" color="255,230,230" fill="1" layer="-1.00" shape="1509.660865,681.012612 1516.580447,689.289973 1520.160481,686.173814 1526.049256,681.033946 1526.844028,681.975262 1528.804488,680.254506 1528.066266,679.270071 1532.408665,675.449539 1525.227227,667.510505 1512.943872,678.045017 1509.660865,681.012612"/>
    <poly id="167278312" type="building.yes" color="255,230,230" fill="1" layer="-1.00" shape="2255.879495,712.130688 2262.856777,722.944361 2263.698227,722.253061 2268.160694,729.072382 2272.933755,725.840528 2267.198565,716.834713 2273.318115,712.690175 2275.930475,710.918464 2270.393475,702.584230 2260.835438,708.880948 2255.879495,712.130688"/>
    <poly id="167278313" type="building.yes" color="255,230,230" fill="1" layer="-1.00" shape="2167.912541,642.473357 2171.792692,648.100624 2172.776587,647.423815 2172.882563,647.637509 2175.471706,651.511338 2185.708921,644.674928 2195.559524,638.418401 2191.597459,632.566882 2181.742360,639.012253 2179.129166,635.148964 2167.912541,642.473357"/>
    <poly id="167278314" type="building.yes" color="255,230,230" fill="1" layer="-1.00" shape="2058.055619,737.768618 2060.771120,742.001065 2065.851407,749.868562 2067.061821,752.009071 2103.450547,728.244464 2097.255547,718.549900 2086.420239,725.861259 2085.861285,725.014391 2071.169265,734.723732 2068.454039,730.813606 2058.055619,737.768618"/>
    <poly id="167278317" type="building.yes" color="255,230,230" fill="1" layer="-1.00" shape="1968.637912,540.752856 1971.244938,544.882651 1971.965882,544.588570 1974.122014,547.996335 1978.728560,545.093742 1979.193460,545.893908 1982.658610,543.619958 1982.101999,542.673126 1983.687906,541.699384 1978.780723,534.213969 1968.637912,540.752856"/>
    <poly id="167278318" type="building.yes" color="255,230,230" fill="1" layer="-1.00" shape="1852.160840,484.204904 1874.656034,517.737474 1881.396259,527.544768 1886.179584,534.571473 1891.372047,542.408131 1920.036607,585.712419 1930.050334,579.259310 1929.531779,578.380073 1928.912064,578.754363 1890.947773,520.513791 1861.943908,477.446125 1852.160840,484.204904"/>
    <poly id="167278324" type="building.yes" color="255,230,230" fill="1" layer="-1.00" shape="1932.651222,435.311650 1939.806176,446.362550 1938.140969,447.334421 1944.042591,456.710634 1963.357458,443.765336 1965.945517,442.015151 1965.348197,441.111812 1960.207787,433.087386 1957.701122,434.750591 1950.679020,439.151856 1943.420755,428.443037 1932.651222,435.311650"/>
    <poly id="167278325" type="building.yes" color="255,230,230" fill="1" layer="-1.00" shape="1984.615650,443.192135 1989.561503,451.056359 1988.779244,451.593499 1989.751073,453.094800 1990.516156,452.612824 1994.221904,458.580375 2003.963439,452.576595 1997.971516,443.331551 1997.190047,443.835366 1996.549947,443.731245 1992.843136,437.808126 1984.615650,443.192135"/>
    <poly id="167278329" type="building.yes" color="255,230,230" fill="1" layer="-1.00" shape="1590.607380,706.059022 1604.369293,721.845216 1608.433995,718.362700 1612.857599,723.502342 1616.380588,720.451569 1611.899380,715.399475 1620.004462,708.122674 1609.516758,696.437441 1601.534283,703.561558 1597.930810,699.630597 1594.252447,702.877757 1590.607380,706.059022"/>
    <poly id="167278334" type="building.industrial" color="255,230,230" fill="1" layer="-1.00" shape="1987.225914,628.531445 2003.446728,652.979495 2009.024140,649.277524 2011.657592,647.617354 2012.369587,648.701254 2036.357438,633.044150 2035.578842,631.758605 2041.080712,628.232696 2024.683411,603.202407 1992.663001,624.726097 1987.491230,628.048713 1987.225914,628.531445"/>
    <poly id="167278335" type="building.yes" color="255,230,230" fill="1" layer="-1.00" shape="1965.580223,415.976523 1969.525998,422.194274 1970.387281,421.670124 1972.039434,424.254563 1966.421954,427.966735 1972.005067,436.724117 1972.565911,437.493218 1986.442328,428.408895 1981.699720,421.338625 1982.803082,420.642395 1975.384663,409.329557 1965.580223,415.976523"/>
    <poly id="167278337" type="building.yes" color="255,230,230" fill="1" layer="-1.00" shape="1413.622225,456.329429 1422.540680,466.643443 1430.683009,460.812153 1434.610961,458.082067 1431.989673,454.874662 1428.007272,457.559004 1427.462614,457.779516 1425.642100,454.591065 1423.041394,451.184093 1415.997492,455.518717 1415.203506,454.877524 1414.242665,455.588334 1413.622225,456.329429"/>
    <poly id="167278347" type="building.yes" color="255,230,230" fill="1" layer="-1.00" shape="1946.644045,310.073319 1955.209983,322.847124 1962.088824,333.169049 1970.926111,327.165968 1967.087068,321.462017 1976.377628,315.414135 1980.203185,321.017742 1993.506889,312.342169 1993.705580,304.311169 1972.962517,303.885184 1960.615779,311.683257 1955.658958,304.274494 1946.644045,310.073319"/>
    <poly id="167278349" type="building.yes" color="255,230,230" fill="1" layer="-1.00" shape="2075.259075,496.894454 2080.365200,505.018196 2083.499533,502.980952 2088.083663,510.036425 2083.111811,513.285921 2089.179660,522.666232 2109.090334,509.357634 2102.959607,500.287014 2097.461300,503.990792 2092.813748,496.933805 2098.257087,493.206488 2093.007732,485.101555 2075.259075,496.894454"/>
    <poly id="167278350" type="building.yes" color="255,230,230" fill="1" layer="-1.00" shape="1980.610242,360.661400 1988.432545,372.006064 1995.356726,382.084590 2006.781814,374.342494 2010.360965,371.949004 2005.477996,364.775354 2001.860783,367.101256 1999.233306,368.839378 1994.667744,361.995594 2000.797202,357.773228 1995.832549,350.697676 1980.739211,360.575548 1980.610242,360.661400"/>
    <poly id="167278352" type="building.yes" color="255,230,230" fill="1" layer="-1.00" shape="1476.151616,545.379579 1486.375138,558.191981 1494.993008,551.371739 1501.040182,546.246709 1501.882658,545.844311 1491.954862,532.938857 1491.481563,533.161053 1485.397637,538.162963 1484.594912,537.221465 1483.350532,538.181183 1484.056763,538.842537 1483.855435,539.304574 1476.151616,545.379579"/>
    <poly id="167278353" type="building.yes" color="255,230,230" fill="1" layer="-1.00" shape="1929.242247,479.988434 1931.590043,483.678593 1931.031900,484.132145 1933.957448,488.547346 1933.037513,489.203481 1937.217430,495.582375 1948.729217,488.186794 1944.449401,481.672146 1943.307467,482.323009 1938.979015,475.851668 1937.172173,477.109150 1935.958509,475.435399 1929.242247,479.988434"/>
    <poly id="167278354" type="building.yes" color="255,230,230" fill="1" layer="-1.00" shape="2312.216151,741.179854 2318.574408,750.333920 2333.862217,739.605665 2334.192549,740.058107 2344.239535,733.217416 2344.622455,733.793371 2360.838740,723.053940 2354.034152,713.989234 2338.580286,724.691263 2338.189172,724.126228 2328.210889,731.079709 2327.735474,730.390409 2312.216151,741.179854"/>
    <poly id="167278357" type="building.yes" color="255,230,230" fill="1" layer="-1.00" shape="2015.109737,525.685279 2019.970096,532.802835 2021.526145,531.750592 2024.217177,535.682346 2031.554238,530.710696 2030.243345,528.790098 2039.289752,522.658714 2040.692881,524.703764 2048.521784,519.399273 2040.342188,507.412509 2017.064802,523.197640 2017.608984,523.999692 2015.109737,525.685279"/>