<?xml version="1.0" encoding="UTF-8"?>

<!-- generated on 2022-10-16 15:16:30 by Eclipse SUMO netconvert Version 1.14.1
<configuration xmlns:xsi="http://www.w3.org/2001/XMLSchema-instance" xsi:noNamespaceSchemaLocation="http://sumo.dlr.de/xsd/netconvertConfiguration.xsd">

    <input>
        <type-files value="/usr/share/sumo/data/typemap/osmNetconvert.typ.xml"/>
        <osm-files value="osm_bbox.osm.xml.gz"/>
    </input>

    <output>
        <output-file value="osm.net.xml"/>
        <output.street-names value="true"/>
        <output.original-names value="true"/>
    </output>

    <projection>
        <proj.utm value="true"/>
    </projection>

    <processing>
        <geometry.remove value="true"/>
        <roundabouts.guess value="true"/>
    </processing>

    <tls_building>
        <tls.discard-simple value="true"/>
        <tls.join value="true"/>
        <tls.guess-signals value="true"/>
        <tls.default-type value="actuated"/>
    </tls_building>

    <ramp_guessing>
        <ramps.guess value="true"/>
    </ramp_guessing>

    <junctions>
        <junctions.join value="true"/>
        <junctions.corner-detail value="5"/>
    </junctions>

    <report>
        <verbose value="true"/>
    </report>

</configuration>
-->

<net version="1.9" junctionCornerDetail="5" limitTurnSpeed="5.50" xmlns:xsi="http://www.w3.org/2001/XMLSchema-instance" xsi:noNamespaceSchemaLocation="http://sumo.dlr.de/xsd/net_file.xsd">

    <location netOffset="-651472.62,-4946232.64" convBoundary="0.00,0.00,2452.27,1637.53" origBoundary="10.910701,44.653141,10.944873,44.668175" projParameter="+proj=utm +zone=32 +ellps=WGS84 +datum=WGS84 +units=m +no_defs"/>

    <type id="highway.bridleway" priority="1" numLanes="1" speed="2.78" allow="pedestrian" oneway="1" width="2.00"/>
    <type id="highway.bus_guideway" priority="1" numLanes="1" speed="27.78" allow="bus" oneway="1"/>
    <type id="highway.cycleway" priority="1" numLanes="1" speed="5.56" allow="bicycle" oneway="0" width="1.00"/>
    <type id="highway.footway" priority="1" numLanes="1" speed="2.78" allow="pedestrian" oneway="1" width="2.00"/>
    <type id="highway.ford" priority="1" numLanes="1" speed="2.78" allow="army" oneway="0"/>
    <type id="highway.living_street" priority="2" numLanes="1" speed="2.78" disallow="tram rail_urban rail rail_electric rail_fast ship" oneway="0"/>
    <type id="highway.motorway" priority="14" numLanes="2" speed="39.44" allow="private emergency authority army vip passenger hov taxi bus coach delivery truck trailer motorcycle evehicle custom1 custom2" oneway="1"/>
    <type id="highway.motorway_link" priority="9" numLanes="1" speed="22.22" allow="private emergency authority army vip passenger hov taxi bus coach delivery truck trailer motorcycle evehicle custom1 custom2" oneway="1"/>
    <type id="highway.path" priority="1" numLanes="1" speed="5.56" allow="pedestrian bicycle" oneway="0" width="2.00"/>
    <type id="highway.pedestrian" priority="1" numLanes="1" speed="2.78" allow="pedestrian" oneway="1" width="2.00"/>
    <type id="highway.primary" priority="12" numLanes="2" speed="27.78" disallow="tram rail_urban rail rail_electric rail_fast ship" oneway="0"/>
    <type id="highway.primary_link" priority="7" numLanes="1" speed="22.22" disallow="tram rail_urban rail rail_electric rail_fast ship" oneway="0"/>
    <type id="highway.raceway" priority="15" numLanes="2" speed="83.33" allow="vip" oneway="0"/>
    <type id="highway.residential" priority="3" numLanes="1" speed="13.89" disallow="tram rail_urban rail rail_electric rail_fast ship" oneway="0"/>
    <type id="highway.secondary" priority="11" numLanes="1" speed="27.78" disallow="tram rail_urban rail rail_electric rail_fast ship" oneway="0"/>
    <type id="highway.secondary_link" priority="6" numLanes="1" speed="22.22" disallow="tram rail_urban rail rail_electric rail_fast ship" oneway="0"/>
    <type id="highway.service" priority="1" numLanes="1" speed="5.56" allow="pedestrian delivery bicycle" oneway="0"/>
    <type id="highway.stairs" priority="1" numLanes="1" speed="1.39" allow="pedestrian" oneway="1" width="2.00"/>
    <type id="highway.step" priority="1" numLanes="1" speed="1.39" allow="pedestrian" oneway="1" width="2.00"/>
    <type id="highway.steps" priority="1" numLanes="1" speed="1.39" allow="pedestrian" oneway="1" width="2.00"/>
    <type id="highway.tertiary" priority="10" numLanes="1" speed="22.22" disallow="tram rail_urban rail rail_electric rail_fast ship" oneway="0"/>
    <type id="highway.tertiary_link" priority="5" numLanes="1" speed="22.22" disallow="tram rail_urban rail rail_electric rail_fast ship" oneway="0"/>
    <type id="highway.track" priority="1" numLanes="1" speed="5.56" allow="pedestrian motorcycle moped bicycle" oneway="0"/>
    <type id="highway.trunk" priority="13" numLanes="2" speed="27.78" disallow="pedestrian bicycle tram rail_urban rail rail_electric rail_fast ship" oneway="0"/>
    <type id="highway.trunk_link" priority="8" numLanes="1" speed="22.22" disallow="pedestrian bicycle tram rail_urban rail rail_electric rail_fast ship" oneway="0"/>
    <type id="highway.unclassified" priority="4" numLanes="1" speed="13.89" disallow="tram rail_urban rail rail_electric rail_fast ship" oneway="0"/>
    <type id="highway.unsurfaced" priority="1" numLanes="1" speed="8.33" disallow="tram rail_urban rail rail_electric rail_fast ship" oneway="0"/>
    <type id="railway.highspeed" priority="21" numLanes="1" speed="69.44" allow="rail_fast" oneway="1"/>
    <type id="railway.light_rail" priority="19" numLanes="1" speed="27.78" allow="rail_urban" oneway="1"/>
    <type id="railway.preserved" priority="16" numLanes="1" speed="27.78" allow="rail" oneway="1"/>
    <type id="railway.rail" priority="20" numLanes="1" speed="44.44" allow="rail" oneway="1"/>
    <type id="railway.subway" priority="18" numLanes="1" speed="27.78" allow="rail_urban" oneway="1"/>
    <type id="railway.tram" priority="17" numLanes="1" speed="13.89" allow="tram" oneway="1"/>

    <edge id=":1076629757_0" function="internal">
        <lane id=":1076629757_0_0" index="0" disallow="tram rail_urban rail rail_electric rail_fast ship" speed="9.09" length="6.24" shape="1603.29,544.85 1602.38,546.47 1601.77,547.66 1601.55,548.90 1601.79,550.67"/>
    </edge>
    <edge id=":1076629757_1" function="internal">
        <lane id=":1076629757_1_0" index="0" disallow="tram rail_urban rail rail_electric rail_fast ship" speed="20.17" length="6.33" shape="1599.02,545.05 1600.07,546.61 1600.78,547.70 1601.31,548.88 1601.79,550.67"/>
    </edge>
    <edge id=":1076629771_0" function="internal">
        <lane id=":1076629771_0_0" index="0" disallow="tram rail_urban rail rail_electric rail_fast ship" speed="13.91" length="7.23" shape="1563.86,551.24 1564.08,549.15 1563.88,547.70 1563.36,546.27 1562.65,544.24"/>
    </edge>
    <edge id=":1076629771_1" function="internal">
        <lane id=":1076629771_1_0" index="0" disallow="tram rail_urban rail rail_electric rail_fast ship" speed="11.31" length="7.38" shape="1563.86,551.24 1564.23,549.08 1564.60,547.59 1565.32,546.27 1566.73,544.65"/>
    </edge>
    <edge id=":1076629793_0" function="internal">
        <lane id=":1076629793_0_0" index="0" disallow="tram rail_urban rail rail_electric rail_fast ship" speed="6.97" length="5.31" shape="1908.48,229.38 1909.49,229.93 1910.93,230.63 1912.36,231.17 1913.39,231.22"/>
    </edge>
    <edge id=":1076629793_1" function="internal">
        <lane id=":1076629793_1_0" index="0" disallow="tram rail_urban rail rail_electric rail_fast ship" speed="13.89" length="5.56" shape="1908.90,234.39 1910.05,233.22 1910.92,232.49 1911.90,231.92 1913.39,231.22"/>
    </edge>
    <edge id=":1113698562_0" function="internal">
        <lane id=":1113698562_0_0" index="0" allow="rail rail_electric rail_fast" speed="16.67" length="2.99" shape="1455.10,194.98 1452.14,195.37"/>
    </edge>
    <edge id=":1113698562_1" function="internal">
        <lane id=":1113698562_1_0" index="0" allow="rail rail_electric rail_fast" speed="44.44" length="3.01" shape="1452.12,195.24 1455.13,195.20"/>
    </edge>
    <edge id=":1113698573_0" function="internal">
        <lane id=":1113698573_0_0" index="0" allow="rail rail_electric rail_fast" speed="44.44" length="3.00" shape="1723.65,171.48 1721.12,173.10"/>
    </edge>
    <edge id=":1113698573_1" function="internal">
        <lane id=":1113698573_1_0" index="0" allow="rail" speed="2.82" length="1.58" shape="1721.19,173.19 1721.67,172.85 1721.82,172.72 1721.64,172.80 1721.12,173.10"/>
    </edge>
    <edge id=":1113698629_0" function="internal">
        <lane id=":1113698629_0_0" index="0" allow="rail rail_electric rail_fast" speed="44.44" length="2.48" shape="1782.23,131.31 1780.16,132.67"/>
    </edge>
    <edge id=":1256984463_0" function="internal">
        <lane id=":1256984463_0_0" index="0" allow="pedestrian bicycle" speed="2.04" length="1.46" width="1.00" shape="1593.82,0.08 1594.01,-0.33 1594.23,-0.49 1594.50,-0.41 1594.81,-0.08"/>
    </edge>
    <edge id=":1419841375_0" function="internal">
        <lane id=":1419841375_0_0" index="0" allow="rail" speed="44.44" length="53.54" shape="1691.46,178.13 1699.96,173.31 1714.58,164.64 1729.14,155.85 1737.43,150.67"/>
    </edge>
    <edge id=":1419841375_1" function="internal">
        <lane id=":1419841375_1_0" index="0" allow="rail rail_electric rail_fast" speed="44.44" length="53.63" shape="1691.46,178.13 1739.14,153.58"/>
    </edge>
    <edge id=":1419841375_2" function="internal">
        <lane id=":1419841375_2_0" index="0" allow="rail" speed="44.44" length="53.71" shape="1693.15,181.08 1737.43,150.67"/>
    </edge>
    <edge id=":1419841375_3" function="internal">
        <lane id=":1419841375_3_0" index="0" allow="rail" speed="44.44" length="53.59" shape="1693.15,181.08 1701.46,175.92 1716.04,167.14 1730.67,158.46 1739.14,153.58"/>
    </edge>
    <edge id=":1419841384_0" function="internal">
        <lane id=":1419841384_0_0" index="0" allow="rail rail_electric rail_fast" speed="43.06" length="3.00" shape="1461.58,164.61 1458.61,165.02"/>
    </edge>
    <edge id=":1419841387_0" function="internal">
        <lane id=":1419841387_0_0" index="0" allow="rail" speed="44.44" length="2.99" shape="1420.62,165.15 1417.66,165.57"/>
    </edge>
    <edge id=":1419841387_1" function="internal">
        <lane id=":1419841387_1_0" index="0" allow="rail" speed="44.44" length="3.01" shape="1417.63,165.35 1420.64,165.32"/>
    </edge>
    <edge id=":1419841402_0" function="internal">
        <lane id=":1419841402_0_0" index="0" allow="rail rail_electric rail_fast" speed="44.44" length="2.94" shape="1685.97,180.83 1688.61,179.53"/>
    </edge>
    <edge id=":1419841426_0" function="internal">
        <lane id=":1419841426_0_0" index="0" allow="rail rail_electric rail_fast" speed="44.44" length="2.86" shape="1690.78,190.40 1688.28,191.79"/>
    </edge>
    <edge id=":1419841426_1" function="internal">
        <lane id=":1419841426_1_0" index="0" allow="rail" speed="2.77" length="1.46" shape="1688.35,191.90 1688.80,191.58 1688.94,191.46 1688.76,191.53 1688.28,191.79"/>
    </edge>
    <edge id=":1419841457_0" function="internal">
        <lane id=":1419841457_0_0" index="0" allow="rail rail_electric rail_fast" speed="44.44" length="2.96" shape="1414.54,196.74 1417.47,196.37"/>
    </edge>
    <edge id=":1419841457_1" function="internal">
        <lane id=":1419841457_1_0" index="0" allow="rail rail_electric rail_fast" speed="44.44" length="2.96" shape="1414.54,196.74 1415.41,196.63 1416.01,196.57 1416.61,196.53 1417.48,196.50"/>
    </edge>
    <edge id=":1419841476_0" function="internal">
        <lane id=":1419841476_0_0" index="0" allow="rail" speed="44.44" length="2.87" shape="1649.04,216.71 1651.65,215.53"/>
    </edge>
    <edge id=":1419841536_0" function="internal">
        <lane id=":1419841536_0_0" index="0" allow="rail" speed="44.44" length="2.99" shape="1000.51,233.07 997.68,234.05"/>
    </edge>
    <edge id=":1419841610_0" function="internal">
        <lane id=":1419841610_0_0" index="0" allow="rail rail_electric rail_fast" speed="44.44" length="3.00" shape="960.03,286.54 957.10,287.17"/>
    </edge>
    <edge id=":1786899256_0" function="internal">
        <lane id=":1786899256_0_0" index="0" disallow="tram rail_urban rail rail_electric rail_fast ship" speed="7.35" length="8.09" shape="1567.38,536.98 1568.91,538.20 1570.66,538.84 1572.65,538.90 1574.86,538.37"/>
    </edge>
    <edge id=":1786899256_1" function="internal">
        <lane id=":1786899256_1_0" index="0" disallow="tram rail_urban rail rail_electric rail_fast ship" speed="16.47" length="9.62" shape="1567.31,544.06 1569.25,541.97 1570.65,540.54 1572.26,539.45 1574.86,538.37"/>
    </edge>
    <edge id=":2023217212_0" function="internal">
        <lane id=":2023217212_0_0" index="0" disallow="tram rail_urban rail rail_electric rail_fast ship" speed="3.65" length="4.67" shape="2074.07,14.69 2074.39,13.29 2074.99,12.63 2075.88,12.71 2077.06,13.54"/>
    </edge>
    <edge id=":2023217236_0" function="internal">
        <lane id=":2023217236_0_0" index="0" disallow="tram rail_urban rail rail_electric rail_fast ship" speed="3.94" length="2.11" shape="1987.23,135.52 1987.71,135.23 1988.19,135.13 1988.68,135.21 1989.17,135.48"/>
    </edge>
    <edge id=":2023217238_0" function="internal">
        <lane id=":2023217238_0_0" index="0" allow="pedestrian delivery bicycle" speed="5.56" length="12.26" shape="1932.41,145.88 1929.79,133.90"/>
    </edge>
    <edge id=":2023217238_1" function="internal">
        <lane id=":2023217238_1_0" index="0" allow="pedestrian delivery bicycle" speed="5.56" length="16.54" shape="1932.41,145.88 1931.85,140.59 1933.05,137.89 1936.00,137.77 1940.71,140.24"/>
    </edge>
    <edge id=":2023217238_2" function="internal">
        <lane id=":2023217238_2_0" index="0" allow="pedestrian delivery bicycle" speed="3.65" length="4.67" shape="1932.41,145.88 1932.94,144.54 1933.63,143.97 1934.50,144.19 1935.54,145.19"/>
    </edge>
    <edge id=":2023217238_3" function="internal">
        <lane id=":2023217238_3_0" index="0" allow="pedestrian delivery bicycle" speed="4.68" length="6.74" shape="1938.92,142.90 1937.00,141.89 1935.80,141.94 1935.31,143.04 1935.54,145.19"/>
    </edge>
    <edge id=":2023217238_4" function="internal">
        <lane id=":2023217238_4_0" index="0" allow="pedestrian delivery bicycle" speed="5.56" length="13.21" shape="1938.92,142.90 1935.89,141.00 1933.20,139.18 1931.08,136.97 1929.79,133.90"/>
    </edge>
    <edge id=":2023217238_5" function="internal">
        <lane id=":2023217238_5_0" index="0" allow="pedestrian delivery bicycle" speed="3.65" length="4.67" shape="1938.92,142.90 1938.37,141.56 1938.48,140.68 1939.26,140.23 1940.71,140.24"/>
    </edge>
    <edge id=":2023217238_6" function="internal">
        <lane id=":2023217238_6_0" index="0" allow="pedestrian delivery bicycle" speed="5.56" length="10.97" shape="1932.92,133.22 1934.00,135.98 1935.66,137.51 1937.89,138.65 1940.71,140.24"/>
    </edge>
    <edge id=":2023217238_7" function="internal">
        <lane id=":2023217238_7_0" index="0" allow="pedestrian delivery bicycle" speed="5.56" length="12.26" shape="1932.92,133.22 1935.54,145.19"/>
    </edge>
    <edge id=":2023217238_8" function="internal">
        <lane id=":2023217238_8_0" index="0" allow="pedestrian delivery bicycle" speed="3.65" length="4.67" shape="1932.92,133.22 1932.39,134.56 1931.69,135.12 1930.83,134.90 1929.79,133.90"/>
    </edge>
    <edge id=":2023217240_0" function="internal">
        <lane id=":2023217240_0_0" index="0" disallow="tram rail_urban rail rail_electric rail_fast ship" speed="13.89" length="9.54" shape="1979.82,146.95 1975.58,138.41"/>
    </edge>
    <edge id=":2023217240_1" function="internal">
        <lane id=":2023217240_1_0" index="0" disallow="tram rail_urban rail rail_electric rail_fast ship" speed="6.79" length="8.17" shape="1979.82,146.95 1979.24,145.00 1979.40,143.15 1980.29,141.41 1981.92,139.76"/>
    </edge>
    <edge id=":2023217242_0" function="internal">
        <lane id=":2023217242_0_0" index="0" allow="pedestrian delivery bicycle" speed="5.56" length="13.96" shape="1970.33,165.30 1968.39,162.43 1965.75,160.37 1962.72,158.65 1959.57,156.78"/>
    </edge>
    <edge id=":2023217242_1" function="internal">
        <lane id=":2023217242_1_0" index="0" allow="pedestrian delivery bicycle" speed="5.56" length="14.93" shape="1970.33,165.30 1964.35,151.62"/>
    </edge>
    <edge id=":2023217242_2" function="internal">
        <lane id=":2023217242_2_0" index="0" allow="pedestrian delivery bicycle" speed="3.65" length="4.67" shape="1970.33,165.30 1970.59,163.88 1971.16,163.19 1972.05,163.24 1973.27,164.02"/>
    </edge>
    <edge id=":2023217242_3" function="internal">
        <lane id=":2023217242_3_0" index="0" allow="pedestrian delivery bicycle" speed="5.56" length="14.93" shape="1967.29,150.34 1973.27,164.02"/>
    </edge>
    <edge id=":2023217242_4" function="internal">
        <lane id=":2023217242_4_0" index="0" allow="pedestrian delivery bicycle" speed="5.56" length="20.53" shape="1967.29,150.34 1969.51,156.93 1968.96,160.20 1965.65,160.15 1959.57,156.78"/>
    </edge>
    <edge id=":2023217242_5" function="internal">
        <lane id=":2023217242_5_0" index="0" allow="pedestrian delivery bicycle" speed="3.65" length="4.67" shape="1967.29,150.34 1967.03,151.76 1966.46,152.45 1965.57,152.40 1964.35,151.62"/>
    </edge>
    <edge id=":2023217242_6" function="internal">
        <lane id=":2023217242_6_0" index="0" allow="pedestrian delivery bicycle" speed="4.84" length="7.98" shape="1961.35,154.13 1963.72,155.44 1965.01,155.46 1965.22,154.18 1964.35,151.62"/>
    </edge>
    <edge id=":2023217242_7" function="internal">
        <lane id=":2023217242_7_0" index="0" allow="pedestrian delivery bicycle" speed="5.56" length="15.69" shape="1961.35,154.13 1964.68,156.21 1968.11,158.40 1971.14,160.93 1973.27,164.02"/>
    </edge>
    <edge id=":2023217242_8" function="internal">
        <lane id=":2023217242_8_0" index="0" allow="pedestrian delivery bicycle" speed="3.65" length="4.67" shape="1961.35,154.13 1961.90,155.46 1961.79,156.35 1961.01,156.79 1959.57,156.78"/>
    </edge>
    <edge id=":2023217244_0" function="internal">
        <lane id=":2023217244_0_0" index="0" allow="pedestrian delivery bicycle" speed="5.56" length="12.58" shape="1985.65,194.73 1974.19,189.53"/>
    </edge>
    <edge id=":2023217244_1" function="internal">
        <lane id=":2023217244_1_0" index="0" allow="pedestrian delivery bicycle" speed="5.56" length="13.50" shape="1985.65,194.73 1982.88,192.79 1981.07,190.19 1979.75,187.12 1978.41,183.77"/>
    </edge>
    <edge id=":2023217244_2" function="internal">
        <lane id=":2023217244_2_0" index="0" allow="pedestrian delivery bicycle" speed="3.65" length="4.67" shape="1985.65,194.73 1984.88,193.51 1984.85,192.61 1985.54,192.05 1986.97,191.82"/>
    </edge>
    <edge id=":2023217244_3" function="internal">
        <lane id=":2023217244_3_0" index="0" allow="pedestrian delivery bicycle" speed="5.56" length="11.33" shape="1981.34,182.48 1982.43,185.59 1983.20,188.10 1984.45,190.13 1986.97,191.82"/>
    </edge>
    <edge id=":2023217244_4" function="internal">
        <lane id=":2023217244_4_0" index="0" allow="pedestrian delivery bicycle" speed="5.56" length="17.02" shape="1981.34,182.48 1983.00,187.74 1982.36,190.67 1979.43,191.27 1974.19,189.53"/>
    </edge>
    <edge id=":2023217244_5" function="internal">
        <lane id=":2023217244_5_0" index="0" allow="pedestrian delivery bicycle" speed="3.65" length="4.67" shape="1981.34,182.48 1981.09,183.90 1980.52,184.59 1979.62,184.55 1978.41,183.77"/>
    </edge>
    <edge id=":2023217244_6" function="internal">
        <lane id=":2023217244_6_0" index="0" allow="pedestrian delivery bicycle" speed="4.69" length="6.89" shape="1975.52,186.62 1977.64,187.32 1978.82,187.08 1979.08,185.89 1978.41,183.77"/>
    </edge>
    <edge id=":2023217244_7" function="internal">
        <lane id=":2023217244_7_0" index="0" allow="pedestrian delivery bicycle" speed="5.56" length="12.57" shape="1975.52,186.62 1986.97,191.82"/>
    </edge>
    <edge id=":2023217244_8" function="internal">
        <lane id=":2023217244_8_0" index="0" allow="pedestrian delivery bicycle" speed="3.65" length="4.67" shape="1975.52,186.62 1976.28,187.84 1976.31,188.74 1975.62,189.30 1974.19,189.53"/>
    </edge>
    <edge id=":2023217246_0" function="internal">
        <lane id=":2023217246_0_0" index="0" allow="pedestrian delivery bicycle" speed="9.57" length="9.51" shape="2006.63,203.70 2005.75,202.69 2004.05,201.67 2001.54,200.65 1998.22,199.63"/>
    </edge>
    <edge id=":2023217246_1" function="internal">
        <lane id=":2023217246_1_0" index="0" disallow="tram rail_urban rail rail_electric rail_fast ship" speed="13.89" length="11.44" shape="2006.63,203.70 2001.74,193.36"/>
    </edge>
    <edge id=":2023217246_2" function="internal">
        <lane id=":2023217246_2_0" index="0" allow="pedestrian delivery bicycle" speed="4.66" length="6.35" shape="1999.07,196.54 2001.04,196.84 2002.14,196.41 2002.38,195.25 2001.74,193.36"/>
    </edge>
    <edge id=":2023217246_3" function="internal">
        <lane id=":2023217246_3_0" index="0" allow="pedestrian delivery bicycle" speed="3.65" length="4.67" shape="1999.07,196.54 2000.01,197.63 2000.19,198.51 1999.59,199.17 1998.22,199.63"/>
    </edge>
    <edge id=":2023217247_0" function="internal">
        <lane id=":2023217247_0_0" index="0" disallow="tram rail_urban rail rail_electric rail_fast ship" speed="13.89" length="8.90" shape="2138.75,238.62 2129.91,239.72"/>
    </edge>
    <edge id=":2023217247_1" function="internal">
        <lane id=":2023217247_1_0" index="0" disallow="tram rail_urban rail rail_electric rail_fast ship" speed="3.65" length="1.44" shape="2138.75,238.62 2137.45,238.00"/>
    </edge>
    <edge id=":2023217247_6" function="internal">
        <lane id=":2023217247_6_0" index="0" disallow="tram rail_urban rail rail_electric rail_fast ship" speed="3.65" length="3.23" shape="2137.45,238.00 2136.94,237.26 2137.23,236.41 2138.31,235.45"/>
    </edge>
    <edge id=":2023217247_2" function="internal">
        <lane id=":2023217247_2_0" index="0" disallow="tram rail_urban rail rail_electric rail_fast ship" speed="12.21" length="8.86" shape="2130.17,232.67 2132.47,233.99 2134.09,235.00 2135.78,235.54 2138.31,235.45"/>
    </edge>
    <edge id=":2023217247_3" function="internal">
        <lane id=":2023217247_3_0" index="0" disallow="tram rail_urban rail rail_electric rail_fast ship" speed="6.15" length="13.95" shape="2130.17,232.67 2134.39,235.21 2135.76,237.24 2134.26,238.74 2129.91,239.72"/>
    </edge>
    <edge id=":2023217247_4" function="internal">
        <lane id=":2023217247_4_0" index="0" disallow="tram rail_urban rail rail_electric rail_fast ship" speed="13.89" length="8.86" shape="2129.51,236.54 2138.31,235.45"/>
    </edge>
    <edge id=":2023217247_5" function="internal">
        <lane id=":2023217247_5_0" index="0" disallow="tram rail_urban rail rail_electric rail_fast ship" speed="3.65" length="1.44" shape="2129.51,236.54 2130.80,237.19"/>
    </edge>
    <edge id=":2023217247_7" function="internal">
        <lane id=":2023217247_7_0" index="0" disallow="tram rail_urban rail rail_electric rail_fast ship" speed="3.65" length="3.23" shape="2130.80,237.19 2131.30,237.93 2131.00,238.77 2129.91,239.72"/>
    </edge>
    <edge id=":2036365644_0" function="internal">
        <lane id=":2036365644_0_0" index="0" allow="pedestrian bicycle" speed="5.56" length="7.24" width="1.00" shape="1288.09,315.55 1281.31,313.01"/>
    </edge>
    <edge id=":2036365644_1" function="internal">
        <lane id=":2036365644_1_0" index="0" allow="pedestrian bicycle" speed="5.56" length="7.16" width="1.00" shape="1281.70,312.09 1288.41,314.60"/>
    </edge>
    <edge id=":2036365644_2" function="internal">
        <lane id=":2036365644_2_0" index="0" allow="rail" speed="8.33" length="6.38" shape="1282.71,316.23 1286.95,311.47"/>
    </edge>
    <edge id=":2036366122_0" function="internal">
        <lane id=":2036366122_0_0" index="0" allow="pedestrian bicycle" speed="2.04" length="1.46" width="1.00" shape="0.05,1074.99 -0.35,1074.77 -0.50,1074.54 -0.40,1074.28 -0.05,1073.99"/>
    </edge>
    <edge id=":2036822385_0" function="internal">
        <lane id=":2036822385_0_0" index="0" allow="pedestrian delivery bicycle" speed="5.23" length="5.23" shape="1777.02,152.48 1775.95,151.43 1774.83,150.93 1773.67,150.97 1772.46,151.56"/>
    </edge>
    <edge id=":2036822385_1" function="internal">
        <lane id=":2036822385_1_0" index="0" allow="pedestrian delivery bicycle" speed="6.82" length="10.44" shape="1777.02,152.48 1775.57,149.98 1775.30,147.66 1776.22,145.51 1778.32,143.54"/>
    </edge>
    <edge id=":2036822385_2" function="internal">
        <lane id=":2036822385_2_0" index="0" allow="pedestrian delivery bicycle" speed="3.65" length="4.67" shape="1777.02,152.48 1776.90,151.04 1777.28,150.23 1778.15,150.05 1779.53,150.50"/>
    </edge>
    <edge id=":2036822385_3" function="internal">
        <lane id=":2036822385_3_0" index="0" allow="pedestrian delivery bicycle" speed="4.98" length="5.07" shape="1780.16,146.16 1779.14,147.11 1778.69,148.16 1778.82,149.28 1779.53,150.50"/>
    </edge>
    <edge id=":2036822385_4" function="internal">
        <lane id=":2036822385_4_0" index="0" disallow="tram rail_urban rail rail_electric rail_fast ship" speed="13.89" length="9.41" shape="1780.16,146.16 1772.46,151.56"/>
    </edge>
    <edge id=":2036822385_5" function="internal">
        <lane id=":2036822385_5_0" index="0" disallow="tram rail_urban rail rail_electric rail_fast ship" speed="13.89" length="9.41" shape="1770.62,148.94 1778.32,143.54"/>
    </edge>
    <edge id=":2036822385_6" function="internal">
        <lane id=":2036822385_6_0" index="0" allow="pedestrian delivery bicycle" speed="7.01" length="3.16" shape="1770.62,148.94 1773.03,147.74 1773.49,147.71"/>
    </edge>
    <edge id=":2036822385_7" function="internal">
        <lane id=":2036822385_7_0" index="0" allow="pedestrian delivery bicycle" speed="7.01" length="7.03" shape="1773.49,147.71 1775.32,147.60 1777.48,148.52 1779.53,150.50"/>
    </edge>
    <edge id=":2036822386_0" function="internal">
        <lane id=":2036822386_0_0" index="0" allow="pedestrian bicycle" speed="4.79" length="4.33" width="1.00" shape="1780.41,156.97 1779.71,156.34 1778.83,156.14 1777.78,156.37 1776.55,157.05"/>
    </edge>
    <edge id=":2036822386_1" function="internal">
        <lane id=":2036822386_1_0" index="0" allow="pedestrian delivery bicycle" speed="5.56" length="5.22" shape="1780.41,156.97 1777.27,152.80"/>
    </edge>
    <edge id=":2036822386_2" function="internal">
        <lane id=":2036822386_2_0" index="0" allow="pedestrian bicycle" speed="5.56" length="7.75" width="1.00" shape="1780.41,156.97 1779.95,155.64 1780.36,154.19 1781.66,152.60 1783.84,150.88"/>
    </edge>
    <edge id=":2036822386_3" function="internal">
        <lane id=":2036822386_3_0" index="0" allow="pedestrian delivery bicycle" speed="3.65" length="4.67" shape="1780.41,156.97 1780.36,155.53 1780.78,154.74 1781.67,154.60 1783.01,155.11"/>
    </edge>
    <edge id=":2036822386_4" function="internal">
        <lane id=":2036822386_4_0" index="0" allow="pedestrian bicycle" speed="4.31" length="4.16" width="1.00" shape="1784.40,151.71 1783.35,152.58 1782.77,153.43 1782.66,154.28 1783.01,155.11"/>
    </edge>
    <edge id=":2036822386_5" function="internal">
        <lane id=":2036822386_5_0" index="0" allow="pedestrian bicycle" speed="5.56" length="9.50" width="1.00" shape="1784.40,151.71 1776.55,157.05"/>
    </edge>
    <edge id=":2036822386_6" function="internal">
        <lane id=":2036822386_6_0" index="0" allow="pedestrian bicycle" speed="5.56" length="7.89" width="1.00" shape="1784.40,151.71 1782.01,153.10 1780.02,153.75 1778.44,153.65 1777.27,152.80"/>
    </edge>
    <edge id=":2036822386_7" function="internal">
        <lane id=":2036822386_7_0" index="0" allow="pedestrian bicycle" speed="2.04" length="1.46" width="1.00" shape="1784.40,151.71 1783.95,151.71 1783.71,151.58 1783.67,151.30 1783.84,150.88"/>
    </edge>
    <edge id=":2036822386_8" function="internal">
        <lane id=":2036822386_8_0" index="0" allow="pedestrian bicycle" speed="4.96" length="4.54" width="1.00" shape="1779.78,150.82 1780.58,151.51 1781.52,151.75 1782.61,151.54 1783.84,150.88"/>
    </edge>
    <edge id=":2036822386_9" function="internal">
        <lane id=":2036822386_9_0" index="0" allow="pedestrian delivery bicycle" speed="5.56" length="5.38" shape="1779.78,150.82 1783.01,155.11"/>
    </edge>
    <edge id=":2036822386_10" function="internal">
        <lane id=":2036822386_10_0" index="0" allow="pedestrian bicycle" speed="5.56" length="7.89" width="1.00" shape="1779.78,150.82 1780.35,152.19 1780.01,153.69 1778.74,155.31 1776.55,157.05"/>
    </edge>
    <edge id=":2036822386_11" function="internal">
        <lane id=":2036822386_11_0" index="0" allow="pedestrian delivery bicycle" speed="3.65" length="4.67" shape="1779.78,150.82 1779.90,152.25 1779.52,153.06 1778.64,153.25 1777.27,152.80"/>
    </edge>
    <edge id=":2036822386_12" function="internal">
        <lane id=":2036822386_12_0" index="0" allow="pedestrian bicycle" speed="4.25" length="4.19" width="1.00" shape="1775.98,156.23 1777.04,155.35 1777.60,154.49 1777.68,153.64 1777.27,152.80"/>
    </edge>
    <edge id=":2036822386_13" function="internal">
        <lane id=":2036822386_13_0" index="0" allow="pedestrian bicycle" speed="5.56" length="9.50" width="1.00" shape="1775.98,156.23 1783.84,150.88"/>
    </edge>
    <edge id=":2036822386_14" function="internal">
        <lane id=":2036822386_14_0" index="0" allow="pedestrian bicycle" speed="5.56" length="7.82" width="1.00" shape="1775.98,156.23 1778.40,154.81 1780.37,154.16 1781.91,154.26 1783.01,155.11"/>