<?xml version="1.0" encoding="UTF-8"?>

<!-- generated on 2022-10-16 15:16:32.062482 by osmWebWizard.py UNKNOWN
<configuration>
    <allow-fringe.min-length value="1000.0"/>
    <end value="3600"/>
    <fringe-factor value="5.0"/>
    <fringe-start-attributes value="departSpeed=&quot;max&quot;"/>
    <lanes value="True"/>
    <min-distance value="300.0"/>
    <net-file value="/home/riccardo/Scrivania/UNIVERSITA/tirocinio/sumo/tools/2022-10-16-15-16-18/osm.net.xml"/>
    <period value="24.676876861561905"/>
    <route-file value="/home/riccardo/Scrivania/UNIVERSITA/tirocinio/sumo/tools/2022-10-16-15-16-18/osm.passenger.rou.xml"/>
    <trip-attributes value="departLane=&quot;best&quot;"/>
    <output-trip-file value="/home/riccardo/Scrivania/UNIVERSITA/tirocinio/sumo/tools/2022-10-16-15-16-18/osm.passenger.trips.xml"/>
    <prefix value="veh"/>
    <validate value="True"/>
    <vehicle-class value="passenger"/>
</configuration>
-->

<!-- generated on 2022-10-16 15:16:32 by Eclipse SUMO duarouter Version 1.14.1
<configuration xmlns:xsi="http://www.w3.org/2001/XMLSchema-instance" xsi:noNamespaceSchemaLocation="http://sumo.dlr.de/xsd/duarouterConfiguration.xsd">

    <input>
        <net-file value="/home/riccardo/Scrivania/UNIVERSITA/tirocinio/sumo/tools/2022-10-16-15-16-18/osm.net.xml"/>
        <route-files value="/home/riccardo/Scrivania/UNIVERSITA/tirocinio/sumo/tools/2022-10-16-15-16-18/osm.passenger.trips.xml"/>
    </input>

    <output>
        <output-file value="/home/riccardo/Scrivania/UNIVERSITA/tirocinio/sumo/tools/2022-10-16-15-16-18/osm.passenger.trips.xml.tmp"/>
        <alternatives-output value="NUL"/>
        <write-trips value="true"/>
    </output>

    <time>
        <begin value="0"/>
        <end value="3600"/>
    </time>

    <report>
        <no-warnings value="true"/>
        <ignore-errors value="true"/>
        <no-step-log value="true"/>
    </report>

</configuration>
-->

<routes xmlns:xsi="http://www.w3.org/2001/XMLSchema-instance" xsi:noNamespaceSchemaLocation="http://sumo.dlr.de/xsd/routes_file.xsd">
    <vType id="veh_passenger" vClass="passenger"/>
    <trip id="veh0" type="veh_passenger" depart="0.00" departLane="best" from="32047907#1" to="-200445697"/>
    <trip id="veh1" type="veh_passenger" depart="24.68" departLane="best" departSpeed="max" from="383116022#0" to="35847142"/>
    <trip id="veh2" type="veh_passenger" depart="49.35" departLane="best" departSpeed="max" from="-35978087#2" to="23584793#3"/>
    <trip id="veh3" type="veh_passenger" depart="74.03" departLane="best" from="-174500774" to="-35978053#0"/>
    <trip id="veh4" type="veh_passenger" depart="98.71" departLane="best" from="323342968#0" to="28401360#2"/>
    <trip id="veh5" type="veh_passenger" depart="123.38" departLane="best" departSpeed="max" from="-35978087#2" to="32035141#1"/>
    <trip id="veh6" type="veh_passenger" depart="148.06" departLane="best" from="495295547#0" to="-174500774"/>
    <trip id="veh7" type="veh_passenger" depart="172.74" departLane="best" from="130070477#0" to="-32047907#0"/>
    <trip id="veh8" type="veh_passenger" depart="197.42" departLane="best" departSpeed="max" from="960705969#0" to="174500774"/>
    <trip id="veh9" type="veh_passenger" depart="222.09" departLane="best" from="622683999#0" to="32035148#1"/>
    <trip id="veh10" type="veh_passenger" depart="246.77" departLane="best" from="495295547#0" to="383116022#1"/>
    <trip id="veh11" type="veh_passenger" depart="271.45" departLane="best" from="32033947" to="976186501#2"/>
    <trip id="veh12" type="veh_passenger" depart="296.12" departLane="best" from="193166663#1" to="28401360#3"/>
    <trip id="veh13" type="veh_passenger" depart="320.80" departLane="best" from="495295548#2" to="32047800#2"/>
    <trip id="veh14" type="veh_passenger" depart="345.48" departLane="best" from="688182344" to="32035131#0"/>
    <trip id="veh15" type="veh_passenger" depart="370.15" departLane="best" departSpeed="max" from="35978053#0" to="-23584793#0"/>
    <trip id="veh16" type="veh_passenger" depart="394.83" departLane="best" departSpeed="max" from="-28166525" to="-383116022#0"/>
    <trip id="veh17" type="veh_passenger" depart="419.51" departLane="best" departSpeed="max" from="32047907#0" to="191742014"/>
    <trip id="veh18" type="veh_passenger" depart="444.18" departLane="best" from="191742014" to="-35978053#0"/>
    <trip id="veh19" type="veh_passenger" depart="468.86" departLane="best" from="32048306" to="32035148#1"/>
    <trip id="veh20" type="veh_passenger" depart="493.54" departLane="best" departSpeed="max" from="-32047907#2" to="35978089"/>
    <trip id="veh21" type="veh_passenger" depart="518.21" departLane="best" departSpeed="max" from="-32047907#2" to="191742020"/>
    <trip id="veh22" type="veh_passenger" depart="542.89" departLane="best" from="32035141#0" to="35978087#0"/>
    <trip id="veh23" type="veh_passenger" depart="567.57" departLane="best" from="622677479" to="486372127"/>
    <trip id="veh24" type="veh_passenger" depart="592.25" departLane="best" from="688182348#0" to="130070477#0"/>
    <trip id="veh25" type="veh_passenger" depart="616.92" departLane="best" departSpeed="max" from="-405724954" to="-383116022#0"/>
    <trip id="veh26" type="veh_passenger" depart="641.60" departLane="best" from="976705482" to="23584793#3"/>
    <trip id="veh27" type="veh_passenger" depart="666.28" departLane="best" departSpeed="max" from="-28166525" to="-23584793#1"/>
    <trip id="veh28" type="veh_passenger" depart="690.95" departLane="best" from="-28401360#5" to="32047907#1"/>
    <trip id="veh29" type="veh_passenger" depart="715.63" departLane="best" from="495295544#6" to="193166664"/>
    <trip id="veh30" type="veh_passenger" depart="740.31" departLane="best" departSpeed="max" from="-23584793#3" to="191742020"/>
    <trip id="veh31" type="veh_passenger" depart="764.98" departLane="best" departSpeed="max" from="960705969#0" to="622676077"/>
    <trip id="veh32" type="veh_passenger" depart="789.66" departLane="best" departSpeed="max" from="-130070477#1" to="35978089"/>
    <trip id="veh33" type="veh_passenger" depart="814.34" departLane="best" departSpeed="max" from="-405724954" to="323342968#1"/>
    <trip id="veh34" type="veh_passenger" depart="839.01" departLane="best" from="200445697" to="960705969#1"/>
    <trip id="veh35" type="veh_passenger" depart="863.69" departLane="best" from="688182348#0" to="-622676076#0"/>
    <trip id="veh36" type="veh_passenger" depart="888.37" departLane="best" departSpeed="max" from="28401360#0" to="-323342968#2"/>
    <trip id="veh37" type="veh_passenger" depart="913.04" departLane="best" from="690163997" to="622683999#0"/>
    <trip id="veh38" type="veh_passenger" depart="937.72" departLane="best" from="-691235181" to="323342968#0"/>
    <trip id="veh39" type="veh_passenger" depart="962.40" departLane="best" from="441634595#0" to="28166525"/>
    <trip id="veh40" type="veh_passenger" depart="987.08" departLane="best" departSpeed="max" from="-130070477#1" to="688182785"/>
    <trip id="veh41" type="veh_passenger" depart="1011.75" departLane="best" from="-960705969#1" to="-28401360#0"/>
    <trip id="veh42" type="veh_passenger" depart="1036.43" departLane="best" departSpeed="max" from="688182349#0" to="737507800#1"/>
    <trip id="veh43" type="veh_passenger" depart="1061.11" departLane="best" from="441634595#1" to="-32047800#0"/>
    <trip id="veh44" type="veh_passenger" depart="1085.78" departLane="best" departSpeed="max" from="23584793#0" to="28401360#3"/>
    <trip id="veh45" type="veh_passenger" depart="1110.46" departLane="best" departSpeed="max" from="-405724954" to="622683999#0"/>
    <trip id="veh46" type="veh_passenger" depart="1135.14" departLane="best" from="193166667#1" to="-35978053#0"/>
    <trip id="veh47" type="veh_passenger" depart="1159.81" departLane="best" from="-32035148#0" to="-35978087#1"/>
    <trip id="veh48" type="veh_passenger" depart="1184.49" departLane="best" departSpeed="max" from="-976186501#2" to="32035141#1"/>
    <trip id="veh49" type="veh_passenger" depart="1209.17" departLane="best" departSpeed="max" from="-23584793#3" to="32047907#2"/>
    <trip id="veh50" type="veh_passenger" depart="1233.84" departLane="best" departSpeed="max" from="-35978087#2" to="688182345#1"/>
    <trip id="veh51" type="veh_passenger" depart="1258.52" departLane="best" from="688182344" to="-28401360#0"/>
    <trip id="veh52" type="veh_passenger" depart="1283.20" departLane="best" departSpeed="max" from="-35978087#2" to="-32047800#0"/>
    <trip id="veh53" type="veh_passenger" depart="1307.87" departLane="best" departSpeed="max" from="737507800#0" to="32034113"/>
    <trip id="veh54" type="veh_passenger" depart="1332.55" departLane="best" from="495295547#0" to="-35847068#3"/>
    <trip id="veh55" type="veh_passenger" depart="1357.23" departLane="best" from="-28401360#1" to="193166665#0"/>
    <trip id="veh56" type="veh_passenger" depart="1381.91" departLane="best" departSpeed="max" from="383116022#0" to="35847131#1"/>
    <trip id="veh57" type="veh_passenger" depart="1406.58" departLane="best" from="193166665#1" to="174500774"/>
    <trip id="veh58" type="veh_passenger" depart="1431.26" departLane="best" from="688182344" to="-383116022#1"/>
    <trip id="veh59" type="veh_passenger" depart="1455.94" departLane="best" from="-35847068#1" to="193166667#0"/>
    <trip id="veh60" type="veh_passenger" depart="1480.61" departLane="best" from="193166668#2" to="622677478"/>
    <trip id="veh61" type="veh_passenger" depart="1505.29" departLane="best" from="32035131#0" to="-23584793#2"/>
    <trip id="veh62" type="veh_passenger" depart="1529.97" departLane="best" from="976705482" to="495295547#1"/>
    <trip id="veh63" type="veh_passenger" depart="1554.64" departLane="best" departSpeed="max" from="960705969#0" to="688182784"/>
    <trip id="veh64" type="veh_passenger" depart="1579.32" departLane="best" from="622683999#0" to="-32047907#1"/>
    <trip id="veh65" type="veh_passenger" depart="1604.00" departLane="best" from="23584793#2" to="-35978053#0"/>
    <trip id="veh66" type="veh_passenger" depart="1628.67" departLane="best" from="193166665#0" to="-28401360#0"/>
    <trip id="veh67" type="veh_passenger" depart="1653.35" departLane="best" from="193166663#1" to="976186501#2"/>
    <trip id="veh68" type="veh_passenger" depart="1678.03" departLane="best" departSpeed="max" from="-405724954" to="486372127"/>
    <trip id="veh69" type="veh_passenger" depart="1702.70" departLane="best" from="200445697" to="193166664"/>
    <trip id="veh70" type="veh_passenger" depart="1727.38" departLane="best" departSpeed="max" from="960705969#0" to="976705481#1"/>
    <trip id="veh71" type="veh_passenger" depart="1752.06" departLane="best" from="32035141#0" to="35978089"/>
    <trip id="veh72" type="veh_passenger" depart="1776.74" departLane="best" departSpeed="max" from="-32047907#2" to="-960705969#0"/>
    <trip id="veh73" type="veh_passenger" depart="1801.41" departLane="best" departSpeed="max" from="960705969#0" to="32035131#1"/>
    <trip id="veh74" type="veh_passenger" depart="1826.09" departLane="best" from="32034113" to="405724954"/>
    <trip id="veh75" type="veh_passenger" depart="1850.77" departLane="best" departSpeed="max" from="-23584793#3" to="32035141#0"/>
    <trip id="veh76" type="veh_passenger" depart="1875.44" departLane="best" departSpeed="max" from="28401360#0" to="495295548#2"/>
    <trip id="veh77" type="veh_passenger" depart="1900.12" departLane="best" departSpeed="max" from="-32047907#2" to="967748228"/>
    <trip id="veh78" type="veh_passenger" depart="1924.80" departLane="best" departSpeed="max" from="32047800#0" to="35847131#1"/>
    <trip id="veh79" type="veh_passenger" depart="1949.47" departLane="best" from="-383116022#1" to="-32047800#0"/>
    <trip id="veh80" type="veh_passenger" depart="1974.15" departLane="best" departSpeed="max" from="688182349#0" to="-383116022#0"/>
    <trip id="veh81" type="veh_passenger" depart="1998.83" departLane="best" departSpeed="max" from="32047800#0" to="32047800#2"/>
    <trip id="veh82" type="veh_passenger" depart="2023.50" departLane="best" from="193166667#0" to="32035141#0"/>
    <trip id="veh83" type="veh_passenger" depart="2048.18" departLane="best" from="28401360#3" to="691042039"/>
    <trip id="veh84" type="veh_passenger" depart="2072.86" departLane="best" from="35847068#0" to="-960705969#0"/>
    <trip id="veh85" type="veh_passenger" depart="2097.53" departLane="best" departSpeed="max" from="-23584793#3" to="-35978053#0"/>
    <trip id="veh86" type="veh_passenger" depart="2122.21" departLane="best" departSpeed="max" from="688182349#0" to="622683999#2"/>
    <trip id="veh87" type="veh_passenger" depart="2146.89" departLane="best" from="191742013" to="-32047907#0"/>
    <trip id="veh88" type="veh_passenger" depart="2171.57" departLane="best" from="622676076#0" to="35978087#2"/>
    <trip id="veh89" type="veh_passenger" depart="2196.24" departLane="best" from="32047800#2" to="976186501#2"/>
    <trip id="veh90" type="veh_passenger" depart="2220.92" departLane="best" from="35847026#0" to="691042040"/>
    <trip id="veh91" type="veh_passenger" depart="2245.60" departLane="best" departSpeed="max" from="-32035148#1" to="-32047570"/>
    <trip id="veh92" type="veh_passenger" depart="2270.27" departLane="best" departSpeed="max" from="-486372127" to="32035148#1"/>
    <trip id="veh93" type="veh_passenger" depart="2294.95" departLane="best" from="35978087#0" to="-35978053#0"/>
    <trip id="veh94" type="veh_passenger" depart="2319.63" departLane="best" departSpeed="max" from="32047907#0" to="-622676076#0"/>
    <trip id="veh95" type="veh_passenger" depart="2344.30" departLane="best" from="-130070477#0" to="441634595#1"/>
    <trip id="veh96" type="veh_passenger" depart="2368.98" departLane="best" departSpeed="max" from="32047907#0" to="-390221189#1"/>
    <trip id="veh97" type="veh_passenger" depart="2393.66" departLane="best" departSpeed="max" from="383116022#0" to="28401360#3"/>
    <trip id="veh98" type="veh_passenger" depart="2418.33" departLane="best" departSpeed="max" from="-28166525" to="622683999#3"/>
    <trip id="veh99" type="veh_passenger" depart="2443.01" departLane="best" from="688182784" to="28401360#2"/>
    <trip id="veh100" type="veh_passenger" depart="2467.69" departLane="best" from="-32047800#2" to="-32047800#0"/>
    <trip id="veh101" type="veh_passenger" depart="2492.36" departLane="best" from="-960705969#1" to="622683999#3"/>
    <trip id="veh102" type="veh_passenger" depart="2517.04" departLane="best" from="495295545#0" to="622676077"/>
    <trip id="veh103" type="veh_passenger" depart="2541.72" departLane="best" from="688182349#1" to="-35978053#0"/>
    <trip id="veh104" type="veh_passenger" depart="2566.40" departLane="best" departSpeed="max" from="-405724954" to="-32047570"/>
    <trip id="veh105" type="veh_passenger" depart="2591.07" departLane="best" from="495295544#3" to="622683999#3"/>
    <trip id="veh106" type="veh_passenger" depart="2615.75" departLane="best" from="193166666#0" to="32047800#2"/>
    <trip id="veh107" type="veh_passenger" depart="2640.43" departLane="best" departSpeed="max" from="-32047907#2" to="688182785"/>
    <trip id="veh108" type="veh_passenger" depart="2665.10" departLane="best" from="495295547#0" to="622683999#3"/>
    <trip id="veh109" type="veh_passenger" depart="2689.78" departLane="best" from="-174500774" to="383116022#2"/>
    <trip id="veh110" type="veh_passenger" depart="2714.46" departLane="best" from="495295545#1" to="622677478"/>
    <trip id="veh111" type="veh_passenger" depart="2739.13" departLane="best" from="495295544#4" to="-32047570"/>
    <trip id="veh112" type="veh_passenger" depart="2763.81" departLane="best" from="688182347#1" to="622676077"/>
    <trip id="veh113" type="veh_passenger" depart="2788.49" departLane="best" departSpeed="max" from="-35978087#2" to="495295544#6"/>
    <trip id="veh114" type="veh_passenger" depart="2813.16" departLane="best" from="23195995" to="-976186501#0"/>
    <trip id="veh115" type="veh_passenger" depart="2837.84" departLane="best" departSpeed="max" from="-976186501#2" to="622677478"/>
    <trip id="veh116" type="veh_passenger" depart="2862.52" departLane="best" from="32047907#1" to="193166663#3"/>
    <trip id="veh117" type="veh_passenger" depart="2887.19" departLane="best" departSpeed="max" from="737507800#0" to="-32047570"/>
    <trip id="veh118" type="veh_passenger" depart="2911.87" departLane="best" departSpeed="max" from="960705969#0" to="-622676076#0"/>
    <trip id="veh119" type="veh_passenger" depart="2936.55" departLane="best" from="-28401360#5" to="193166665#1"/>
    <trip id="veh120" type="veh_passenger" depart="2961.23" departLane="best" departSpeed="max" from="383116022#0" to="130070477#0"/>
    <trip id="veh121" type="veh_passenger" depart="2985.90" departLane="best" departSpeed="max" from="32047800#0" to="23584793#3"/>
    <trip id="veh122" type="veh_passenger" depart="3010.58" departLane="best" departSpeed="max" from="-405724954" to="35978087#2"/>
    <trip id="veh123" type="veh_passenger" depart="3035.26" departLane="best" from="-130070477#0" to="688182784"/>
    <trip id="veh124" type="veh_passenger" depart="3059.93" departLane="best" from="32033947" to="35978089"/>
    <trip id="veh125" type="veh_passenger" depart="3084.61" departLane="best" departSpeed="max" from="383116022#0" to="35847081"/>
    <trip id="veh126" type="veh_passenger" depart="3109.29" departLane="best" departSpeed="max" from="-32035148#1" to="193166664"/>
    <trip id="veh127" type="veh_passenger" depart="3133.96" departLane="best" from="688182784" to="32047800#1"/>
    <trip id="veh128" type="veh_passenger" depart="3158.64" departLane="best" from="-130070477#0" to="-960705969#0"/>
    <trip id="veh129" type="veh_passenger" depart="3183.32" departLane="best" from="193166667#3" to="32035131#1"/>
    <trip id="veh130" type="veh_passenger" depart="3207.99" departLane="best" from="193166668#2" to="-35978053#0"/>
    <trip id="veh131" type="veh_passenger" depart="3232.67" departLane="best" from="495295545#0" to="-32047907#1"/>
    <trip id="veh132" type="veh_passenger" depart="3257.35" departLane="best" departSpeed="max" from="-28166525" to="23584793#3"/>
    <trip id="veh133" type="veh_passenger" depart="3282.02" departLane="best" departSpeed="max" from="32047907#0" to="130070477#1"/>
    <trip id="veh134" type="veh_passenger" depart="3306.70" departLane="best" from="495295547#2" to="405724954"/>
    <trip id="veh135" type="veh_passenger" depart="3331.38" departLane="best" from="35847068#0" to="-35978087#1"/>
    <trip id="veh136" type="veh_passenger" depart="3356.06" departLane="best" from="-35847131#1" to="-200445697"/>
    <trip id="veh137" type="veh_passenger" depart="3380.73" departLane="best" from="-390221189#1" to="193166672#0"/>
    <trip id="veh138" type="veh_passenger" depart="3405.41" departLane="best" from="193166666#2" to="32047907#2"/>
    <trip id="veh139" type="veh_passenger" depart="3430.09" departLane="best" from="-35847068#3" to="35978087#2"/>
    <trip id="veh140" type="veh_passenger" depart="3454.76" departLane="best" departSpeed="max" from="28401360#0" to="-383116022#0"/>
    <trip id="veh141" type="veh_passenger" depart="3479.44" departLane="best" from="323342968#1" to="-174500774"/>
    <trip id="veh142" type="veh_passenger" depart="3504.12" departLane="best" from="383116022#2" to="441634595#1"/>
    <trip id="veh143" type="veh_passenger" depart="3528.79" departLane="best" from="-323342968#0" to="967748228"/>
    <trip id="veh144" type="veh_passenger" depart="3553.47" departLane="best" from="28401360#2" to="-23584793#2"/>
    <trip id="veh145" type="veh_passenger" depart="3578.15" departLane="best" departSpeed="max" from="-405724954" to="495295548#1"/>
</routes>
