<?xml version="1.0" encoding="UTF-8"?>

<!-- generated on 2022-10-16 15:16:31 by Eclipse SUMO polyconvert Version 1.14.1
<configuration xmlns:xsi="http://www.w3.org/2001/XMLSchema-instance" xsi:noNamespaceSchemaLocation="http://sumo.dlr.de/xsd/polyconvertConfiguration.xsd">

    <input>
        <net-file value="osm.net.xml"/>
        <osm-files value="osm_bbox.osm.xml.gz"/>
        <osm.keep-full-type value="true"/>
        <type-file value="/usr/share/sumo/data/typemap/osmPolyconvert.typ.xml"/>
    </input>

    <output>
        <output-file value="osm.poly.xml"/>
    </output>

    <report>
        <verbose value="true"/>
    </report>

</configuration>
-->

<additional xmlns:xsi="http://www.w3.org/2001/XMLSchema-instance" xsi:noNamespaceSchemaLocation="http://sumo.dlr.de/xsd/additional_file.xsd">
    <location netOffset="-651472.62,-4946232.64" convBoundary="-0.00,-1090.88,2699.63,1697.02" origBoundary="10.910701,44.643267,10.944873,44.668175" projParameter="+proj=utm +zone=32 +ellps=WGS84 +datum=WGS84 +units=m +no_defs"/>

    <poly id="167114428" type="building.yes" color="255,230,230" fill="1" layer="-1.00" shape="1869.094629,137.469426 1872.335410,141.980984 1874.877072,145.531228 1887.720691,136.188765 1895.575461,130.473460 1889.932018,121.903676 1888.244318,118.807157 1882.883966,124.715048 1880.599314,127.717283 1879.199414,128.873298 1869.094629,137.469426"/>
    <poly id="167114596" type="building.yes" color="255,230,230" fill="1" layer="-1.00" shape="1999.917938,177.086365 2011.933952,203.590692 2012.660471,203.063345 2029.729656,192.510039 2030.196650,192.221045 2034.177068,189.637039 2028.911381,184.210361 2025.985718,185.808016 2018.186882,190.501969 2010.685313,172.329534 1999.917938,177.086365"/>
    <poly id="167114861" type="building.yes" color="255,230,230" fill="1" layer="-1.00" shape="2137.375669,163.158869 2140.228044,169.650818 2138.940678,170.075903 2147.246115,186.789399 2153.778061,183.665951 2154.806194,185.802137 2158.940765,184.077681 2148.526178,160.645368 2143.956567,162.315030 2143.315102,160.932705 2137.375669,163.158869"/>
    <poly id="167119332" type="building.industrial" color="255,230,230" fill="1" layer="-1.00" shape="1840.634294,119.900168 1854.977517,144.314307 1862.847375,139.632960 1862.975575,139.913863 1868.392086,136.652516 1869.094629,137.469426 1879.199414,128.873298 1880.599314,127.717283 1882.883966,124.715048 1881.287855,124.110331 1881.385862,123.323535 1881.137861,121.739404 1880.079798,120.191619 1877.939092,117.128809 1873.793267,119.997958 1865.216529,105.323464 1865.113717,105.309910 1853.929675,111.913200 1840.634294,119.900168"/>
    <poly id="167119821" type="building.yes" color="255,230,230" fill="1" layer="-1.00" shape="2016.473966,139.712873 2043.650390,158.208266 2040.486156,162.834482 2048.401921,168.246335 2062.457889,161.311500 2061.844426,160.085451 2092.265043,145.214867 2083.811653,128.042244 2053.069867,143.071956 2054.583049,146.164375 2052.127001,147.361945 2024.232181,128.382646 2016.473966,139.712873"/>
    <poly id="167120005" type="building.yes" color="255,230,230" fill="1" layer="-1.00" shape="1855.421606,154.016601 1859.812958,160.189273 1876.731770,184.042186 1889.589521,201.508003 1890.395938,202.627470 1898.844782,197.281934 1894.926866,191.553931 1899.664379,188.154236 1900.387007,189.127228 1904.384793,186.143438 1897.632930,176.813781 1892.466484,180.570072 1892.895994,181.191559 1889.493359,183.500390 1885.471033,177.825487 1882.526566,173.532127 1883.599288,172.790694 1878.815199,166.119649 1878.630708,165.870753 1865.135320,147.522909 1856.986157,152.942289 1855.421606,154.016601"/>
    <poly id="167121535" type="building.yes" color="255,230,230" fill="1" layer="-1.00" shape="2029.127251,115.350588 2058.574762,140.101839 2079.005374,115.968910 2049.557820,91.217568 2029.127251,115.350588"/>
    <poly id="167121592" type="building.yes" color="255,230,230" fill="1" layer="-1.00" shape="2057.597836,214.600781 2062.438333,223.562880 2076.340114,216.435471 2071.779785,207.702307 2057.597836,214.600781"/>
    <poly id="167121828" type="amenity.bank" color="237,199,199" fill="1" layer="-1.00" shape="1961.886163,228.854284 1989.678547,231.426026 1990.803650,218.793435 1962.868773,216.540625 1961.886163,228.854284"/>
    <poly id="167121828#1" type="building.yes" color="255,230,230" fill="1" layer="-1.00" shape="1961.886163,228.854284 1989.678547,231.426026 1990.803650,218.793435 1962.868773,216.540625 1961.886163,228.854284"/>
    <poly id="167124249" type="building.yes" color="255,230,230" fill="1" layer="-1.00" shape="2126.099559,136.249531 2130.373168,147.698949 2137.440349,145.088357 2133.144548,133.571719 2126.099559,136.249531"/>
    <poly id="167124994" type="building.yes" color="255,230,230" fill="1" layer="-1.00" shape="2033.248597,196.994950 2037.033713,202.630973 2041.502259,199.536191 2037.838462,194.136451 2033.248597,196.994950"/>
    <poly id="167125360" type="building.yes" color="255,230,230" fill="1" layer="-1.00" shape="2049.419686,208.882590 2051.454070,213.076607 2056.313267,210.902500 2054.334915,206.687584 2049.419686,208.882590"/>
    <poly id="167125521" type="building.yes" color="255,230,230" fill="1" layer="-1.00" shape="2157.704222,137.990109 2175.523008,182.338022 2185.715160,178.423607 2167.843565,133.629831 2157.704222,137.990109"/>
    <poly id="167130038" type="building.yes" color="255,230,230" fill="1" layer="-1.00" shape="2106.846970,145.861544 2111.527600,156.542614 2123.544407,151.293286 2118.674549,140.229818 2106.846970,145.861544"/>
    <poly id="167131685" type="building.yes" color="255,230,230" fill="1" layer="-1.00" shape="2066.155211,77.163207 2091.525190,141.629555 2107.396458,135.427051 2096.697913,108.242527 2094.236629,101.982184 2082.034534,70.960827 2066.155211,77.163207"/>
    <poly id="167134471" type="building.yes" color="255,230,230" fill="1" layer="-1.00" shape="2130.373168,147.698949 2132.769383,154.024449 2136.193226,163.508647 2137.375669,163.158869 2143.315102,160.932705 2137.440349,145.088357 2130.373168,147.698949"/>
    <poly id="167135227" type="building.yes" color="255,230,230" fill="1" layer="-1.00" shape="2011.970343,166.324934 2014.595142,169.043631 2028.911381,184.210361 2034.177068,189.637039 2043.956223,183.734227 2019.449773,164.390873 2015.883029,161.583111 2011.970343,166.324934"/>
    <poly id="167136259" type="building.yes" color="255,230,230" fill="1" layer="-1.00" shape="1865.135320,147.522909 1878.630708,165.870753 1894.932690,153.876246 1889.699008,146.761060 1880.736395,153.361458 1874.877072,145.531228 1872.335410,141.980984 1865.135320,147.522909"/>
    <poly id="167136952" type="building.yes" color="255,230,230" fill="1" layer="-1.00" shape="1958.596091,104.483738 2005.467841,136.817312 2015.661656,122.143921 1994.829061,107.767176 1988.834398,103.634722 1968.789842,89.810275 1958.596091,104.483738"/>
    <poly id="167136952#1" type="leisure.pitch" color="207,245,201" fill="1" layer="-2.00" shape="1958.596091,104.483738 2005.467841,136.817312 2015.661656,122.143921 1994.829061,107.767176 1988.834398,103.634722 1968.789842,89.810275 1958.596091,104.483738"/>
    <poly id="167136952#2" type="sport.skateboard" color="79,230,125" fill="1" layer="-2.00" shape="1958.596091,104.483738 2005.467841,136.817312 2015.661656,122.143921 1994.829061,107.767176 1988.834398,103.634722 1968.789842,89.810275 1958.596091,104.483738"/>
    <poly id="167137672" type="building.yes" color="255,230,230" fill="1" layer="-1.00" shape="2144.543479,188.014415 2153.390693,205.963389 2158.424190,209.806405 2160.973567,211.022924 2165.991417,211.520133 2154.806194,185.802137 2153.778061,183.665951 2147.246115,186.789399 2144.543479,188.014415"/>
    <poly id="167138019" type="building.yes" color="255,230,230" fill="1" layer="-1.00" shape="2128.669541,215.689823 2126.289148,206.363806 2112.237623,210.108768 2119.825601,217.958095 2125.173510,216.584781 2128.669541,215.689823"/>
    <poly id="167138723" type="building.yes" color="255,230,230" fill="1" layer="-1.00" shape="1985.004365,144.311407 1995.553546,167.446535 1997.245972,171.343435 2010.988716,165.234632 2011.970343,166.324934 2015.883029,161.583111 2010.940324,157.586767 1989.444872,140.393457 1985.004365,144.311407"/>
    <poly id="167278290" type="building.yes" color="255,230,230" fill="1" layer="-1.00" shape="2112.396630,436.691173 2120.095921,448.522127 2123.206073,453.175211 2124.460124,455.150050 2136.345547,447.396900 2132.194896,441.129707 2131.568816,441.437140 2127.688523,435.476468 2128.277866,435.045903 2124.226571,428.936681 2112.396630,436.691173"/>
    <poly id="167278291" type="building.yes" color="255,230,230" fill="1" layer="-1.00" shape="1525.227227,615.460505 1532.408665,623.399539 1533.309170,624.565648 1535.471259,622.705183 1534.433080,621.658071 1536.175010,620.121085 1538.111588,622.423172 1539.554911,621.101403 1542.671181,618.140987 1533.713344,608.170395 1525.227227,615.460505"/>
    <poly id="167278300" type="building.yes" color="255,230,230" fill="1" layer="-1.00" shape="1479.696458,372.077892 1491.276345,388.256714 1509.382784,375.381521 1497.802915,359.202667 1479.696458,372.077892"/>
    <poly id="167278305" type="building.yes" color="255,230,230" fill="1" layer="-1.00" shape="1924.780777,541.666295 1927.772618,546.294244 1929.873829,544.999293 1960.052270,590.673761 1968.635474,585.331524 1968.193309,584.576356 1967.594730,584.728856 1935.131212,535.732453 1935.490346,535.307519 1935.034179,534.807653 1924.780777,541.666295"/>
    <poly id="167278313" type="building.yes" color="255,230,230" fill="1" layer="-1.00" shape="2167.912541,590.423357 2171.792692,596.050624 2172.776587,595.373815 2172.882563,595.587509 2175.471706,599.461338 2185.708921,592.624928 2195.559524,586.368401 2191.597459,580.516882 2181.742360,586.962253 2179.129166,583.098964 2167.912541,590.423357"/>
    <poly id="167278317" type="building.yes" color="255,230,230" fill="1" layer="-1.00" shape="1968.637912,488.702856 1971.244938,492.832651 1971.965882,492.538570 1974.122014,495.946335 1978.728560,493.043742 1979.193460,493.843908 1982.658610,491.569958 1982.101999,490.623126 1983.687906,489.649384 1978.780723,482.163969 1968.637912,488.702856"/>
    <poly id="167278318" type="building.yes" color="255,230,230" fill="1" layer="-1.00" shape="1852.160840,432.154904 1874.656034,465.687474 1881.396259,475.494768 1886.179584,482.521473 1891.372047,490.358131 1920.036607,533.662419 1930.050334,527.209310 1929.531779,526.330073 1928.912064,526.704363 1890.947773,468.463791 1861.943908,425.396125 1852.160840,432.154904"/>
    <poly id="167278324" type="building.yes" color="255,230,230" fill="1" layer="-1.00" shape="1932.651222,383.261650 1939.806176,394.312550 1938.140969,395.284421 1944.042591,404.660634 1963.357458,391.715336 1965.945517,389.965151 1965.348197,389.061812 1960.207787,381.037386 1957.701122,382.700591 1950.679020,387.101856 1943.420755,376.393037 1932.651222,383.261650"/>
    <poly id="167278325" type="building.yes" color="255,230,230" fill="1" layer="-1.00" shape="1984.615650,391.142135 1989.561503,399.006359 1988.779244,399.543499 1989.751073,401.044800 1990.516156,400.562824 1994.221904,406.530375 2003.963439,400.526595 1997.971516,391.281551 1997.190047,391.785366 1996.549947,391.681245 1992.843136,385.758126 1984.615650,391.142135"/>
    <poly id="167278334" type="building.industrial" color="255,230,230" fill="1" layer="-1.00" shape="1987.225914,576.481445 2003.446728,600.929495 2009.024140,597.227524 2011.657592,595.567354 2012.369587,596.651254 2036.357438,580.994150 2035.578842,579.708605 2041.080712,576.182696 2024.683411,551.152407 1992.663001,572.676097 1987.491230,575.998713 1987.225914,576.481445"/>
    <poly id="167278335" type="building.yes" color="255,230,230" fill="1" layer="-1.00" shape="1965.580223,363.926523 1969.525998,370.144274 1970.387281,369.620124 1972.039434,372.204563 1966.421954,375.916735 1972.005067,384.674117 1972.565911,385.443218 1986.442328,376.358895 1981.699720,369.288625 1982.803082,368.592395 1975.384663,357.279557 1965.580223,363.926523"/>
    <poly id="167278347" type="building.yes" color="255,230,230" fill="1" layer="-1.00" shape="1946.644045,258.023319 1955.209983,270.797124 1962.088824,281.119049 1970.926111,275.115968 1967.087068,269.412017 1976.377628,263.364135 1980.203185,268.967742 1993.506889,260.292169 1993.705580,252.261169 1972.962517,251.835184 1960.615779,259.633257 1955.658958,252.224494 1946.644045,258.023319"/>
    <poly id="167278349" type="building.yes" color="255,230,230" fill="1" layer="-1.00" shape="2075.259075,444.844454 2080.365200,452.968196 2083.499533,450.930952 2088.083663,457.986425 2083.111811,461.235921 2089.179660,470.616232 2109.090334,457.307634 2102.959607,448.237014 2097.461300,451.940792 2092.813748,444.883805 2098.257087,441.156488 2093.007732,433.051555 2075.259075,444.844454"/>
    <poly id="167278350" type="building.yes" color="255,230,230" fill="1" layer="-1.00" shape="1980.610242,308.611400 1988.432545,319.956064 1995.356726,330.034590 2006.781814,322.292494 2010.360965,319.899004 2005.477996,312.725354 2001.860783,315.051256 1999.233306,316.789378 1994.667744,309.945594 2000.797202,305.723228 1995.832549,298.647676 1980.739211,308.525548 1980.610242,308.611400"/>
    <poly id="167278352" type="building.yes" color="255,230,230" fill="1" layer="-1.00" shape="1476.151616,493.329579 1486.375138,506.141981 1494.993008,499.321739 1501.040182,494.196709 1501.882658,493.794311 1491.954862,480.888857 1491.481563,481.111053 1485.397637,486.112963 1484.594912,485.171465 1483.350532,486.131183 1484.056763,486.792537 1483.855435,487.254574 1476.151616,493.329579"/>
    <poly id="167278353" type="building.yes" color="255,230,230" fill="1" layer="-1.00" shape="1929.242247,427.938434 1931.590043,431.628593 1931.031900,432.082145 1933.957448,436.497346 1933.037513,437.153481 1937.217430,443.532375 1948.729217,436.136794 1944.449401,429.622146 1943.307467,430.273009 1938.979015,423.801668 1937.172173,425.059150 1935.958509,423.385399 1929.242247,427.938434"/>
    <poly id="167278357" type="building.yes" color="255,230,230" fill="1" layer="-1.00" shape="2015.109737,473.635279 2019.970096,480.752835 2021.526145,479.700592 2024.217177,483.632346 2031.554238,478.660696 2030.243345,476.740098 2039.289752,470.608714 2040.692881,472.653764 2048.521784,467.349273 2040.342188,455.362509 2017.064802,471.147640 2017.608984,471.949692 2015.109737,473.635279"/>
    <poly id="167278359" type="building.yes" color="255,230,230" fill="1" layer="-1.00" shape="1992.181936,527.140016 2007.073227,549.789292 2016.794741,543.618348 2011.675412,535.716629 2010.030055,536.855668 2006.505987,531.592627 2007.749386,530.677441 2002.627935,523.198028 2003.349657,522.537194 2001.314334,519.387921 1996.951991,522.362984 1997.725577,523.526146 1992.181936,527.140016"/>
    <poly id="167278362" type="building.yes" color="255,230,230" fill="1" layer="-1.00" shape="2036.443464,263.535057 2042.709812,273.253457 2043.095667,273.040337 2046.503043,278.211701 2053.337416,273.706042 2052.982991,273.264158 2055.569537,271.580656 2048.008930,260.242128 2046.479231,260.516985 2044.975165,260.714650 2043.281329,260.552144 2041.204265,260.158246 2036.443464,263.535057"/>
    <poly id="167278369" type="building.yes" color="255,230,230" fill="1" layer="-1.00" shape="1499.635222,352.510740 1527.466344,391.614384 1535.332392,386.065651 1521.635614,366.824621 1517.875941,369.480841 1514.981310,365.422237 1520.314145,361.658487 1509.058858,345.842959 1499.635222,352.510740"/>
    <poly id="167278375" type="building.yes" color="255,230,230" fill="1" layer="-1.00" shape="1439.164769,433.503422 1443.600811,438.465397 1445.008722,441.321771 1449.579150,440.940919 1449.637745,442.487203 1447.594874,442.661136 1447.678124,444.841524 1449.827482,444.525624 1459.463016,443.308836 1458.912811,430.358684 1458.451645,430.403339 1458.312595,427.899314 1449.087883,428.181108 1439.164769,433.503422"/>
    <poly id="167278380" type="building.yes" color="255,230,230" fill="1" layer="-1.00" shape="1533.713344,608.170395 1542.671181,618.140987 1544.154989,619.798832 1545.318493,618.903897 1547.754094,616.883198 1544.355651,613.001583 1558.504351,600.077264 1559.926805,601.311313 1558.986900,602.478287 1571.886166,613.164693 1576.689028,607.321166 1578.671648,605.000772 1558.468734,587.850600 1533.713344,608.170395"/>
    <poly id="167278383" type="building.yes" color="255,230,230" fill="1" layer="-1.00" shape="1902.184562,363.710509 1904.033375,366.366284 1908.338381,372.825926 1919.878259,365.253126 1924.551462,362.218702 1931.269648,357.921337 1942.096038,350.998497 1948.597274,346.818256 1953.219659,353.274351 1967.058082,344.789261 1956.357749,328.697110 1953.546878,330.475352 1914.260145,355.961471 1902.184562,363.710509"/>
    <poly id="167278386" type="building.yes" color="255,230,230" fill="1" layer="-1.00" shape="1481.395108,584.135905 1481.573410,587.996815 1495.718426,587.620408 1504.105713,587.518920 1504.503168,596.864410 1504.702566,605.193801 1506.081067,605.604332 1521.827683,591.861968 1514.649089,583.800757 1512.044367,583.583474 1504.006181,583.682103 1495.617574,583.839131 1487.538696,583.981275 1481.395108,584.135905"/>
    <poly id="167278391" type="building.yes" color="255,230,230" fill="1" layer="-1.00" shape="1968.659452,290.722340 1974.574593,299.532063 1999.570811,282.542773 2004.749824,289.945738 2011.642029,285.341380 2009.662392,282.182317 2013.386920,279.681137 2015.405936,282.852252 2023.505402,277.520806 2015.912757,265.859238 2004.123635,273.559332 2002.185757,270.645781 1994.708947,275.480779 1993.692164,273.867267 1968.659452,290.722340"/>
    <poly id="167278401" type="building.yes" color="255,230,230" fill="1" layer="-1.00" shape="2290.705152,589.376947 2294.609772,595.638399 2300.529337,592.233790 2305.531462,600.377485 2312.490177,595.975094 2308.907192,590.199208 2319.381629,583.401992 2315.437911,577.117365 2312.713454,578.930851 2307.549844,570.905567 2299.423258,576.047062 2303.488825,582.212320 2300.918977,583.862774 2300.435887,583.162180 2290.705152,589.376947"/>
    <poly id="167278403" type="building.yes" color="255,230,230" fill="1" layer="-1.00" shape="2178.013026,605.345743 2186.497410,618.173538 2187.622967,619.878589 2196.145817,614.412953 2195.133900,612.932892 2194.949434,612.683986 2196.540632,611.488133 2209.843183,602.846336 2207.951753,599.989389 2207.616914,599.392359 2205.277276,598.703180 2203.750292,599.533782 2201.698440,596.083956 2206.090965,593.176433 2203.260815,588.763365 2178.013026,605.345743"/>
    <poly id="167278408" type="building.yes" color="255,230,230" fill="1" layer="-1.00" shape="1791.542527,203.527209 1811.837327,232.550425 1828.536510,220.520729 1828.729457,220.747595 1840.809132,212.498362 1843.615254,210.586585 1854.293991,202.870968 1855.534527,202.077941 1861.183250,198.055208 1828.429431,151.808987 1824.020056,145.391393 1803.735458,159.736761 1820.101543,183.154056 1794.653092,201.489261 1791.542527,203.527209"/>
    <poly id="167278413" type="building.yes" color="255,230,230" fill="1" layer="-1.00" shape="2245.744710,541.259573 2249.588903,541.728933 2255.793629,542.676814 2255.309978,548.000236 2265.421520,549.118893 2265.909422,541.283709 2263.210611,541.019426 2263.288844,539.732012 2263.593558,539.594776 2263.978380,533.424305 2264.121106,530.426803 2256.997736,529.412597 2256.488458,532.479178 2250.383356,531.678155 2246.879283,531.250231 2245.744710,541.259573"/>
    <poly id="167278423" type="building.yes" color="255,230,230" fill="1" layer="-1.00" shape="2217.274427,496.880257 2220.717206,497.551224 2226.520272,498.711808 2225.537156,504.356781 2236.125531,506.109141 2237.314267,498.490691 2234.250996,497.873203 2234.393972,496.531757 2235.137656,496.616138 2236.205880,489.394940 2236.634016,486.404229 2228.882927,485.097261 2228.454002,488.121297 2222.533587,487.224667 2219.086574,486.731430 2217.274427,496.880257"/>
    <poly id="167278444" type="building.yes" color="255,230,230" fill="1" layer="-1.00" shape="1884.136960,414.508389 1887.836957,420.053391 1897.733804,434.903771 1910.467813,426.481269 1907.657233,422.568958 1914.153876,418.244089 1916.109990,421.391451 1919.733459,419.132340 1918.940280,417.790893 1932.179385,409.147021 1922.442707,393.900270 1922.098319,393.369716 1921.587960,392.812993 1921.062007,392.244785 1919.744273,391.946753 1917.765866,392.411044 1884.136960,414.508389"/>
    <poly id="167278447" type="building.industrial" color="255,230,230" fill="1" layer="-1.00" shape="1788.219038,404.496679 1794.101269,413.361023 1795.026727,412.471597 1795.846261,412.368781 1796.839763,413.292617 1805.672451,426.528241 1808.764605,431.280765 1811.567727,429.491166 1817.132742,438.014576 1842.038465,421.789465 1836.479001,413.032763 1841.414297,409.982273 1824.928061,385.306104 1820.421950,388.322333 1818.066674,384.609813 1816.323737,384.846319 1788.563033,403.037739 1788.219038,404.496679"/>
    <poly id="167278453" type="building.yes" color="255,230,230" fill="1" layer="-1.00" shape="1520.453876,547.371917 1521.919220,549.140462 1520.883350,550.005081 1523.243386,552.850680 1524.092959,552.148365 1526.422070,554.959891 1529.529418,552.377145 1536.121302,560.091043 1534.371166,561.638949 1532.799663,563.013256 1535.102314,565.601871 1530.761229,569.700293 1539.099122,577.044315 1550.566590,567.135157 1543.145379,558.934796 1527.880713,541.268177 1523.261563,545.048817 1520.453876,547.371917"/>
    <poly id="167278454" type="building.yes" color="255,230,230" fill="1" layer="-1.00" shape="1811.837327,232.550425 1848.844108,284.765909 1862.642556,275.290467 1865.876524,273.066537 1856.719214,260.467770 1861.126572,257.271388 1885.868325,239.297560 1879.130245,230.057162 1882.245027,227.508093 1879.511514,223.686545 1861.183250,198.055208 1855.534527,202.077941 1854.293991,202.870968 1843.615254,210.586585 1840.809132,212.498362 1828.729457,220.747595 1828.536510,220.520729 1811.837327,232.550425"/>
    <poly id="167278460" type="building.yes" color="255,230,230" fill="1" layer="-1.00" shape="2136.999960,539.651099 2139.129295,542.847112 2138.185039,543.524870 2147.355135,557.213605 2148.256580,556.668204 2150.709912,560.249817 2155.300379,557.358080 2155.939148,558.184624 2163.286281,553.457879 2158.683280,546.535270 2156.974470,547.672763 2155.958567,546.025898 2152.125242,548.435490 2148.345205,542.932876 2154.726155,538.805555 2149.103791,530.380494 2141.033847,535.479073 2141.673416,536.605724 2136.999960,539.651099"/>
    <poly id="167278461" type="building.yes" color="255,230,230" fill="1" layer="-1.00" shape="2075.363847,386.696290 2081.569217,396.302145 2085.371678,393.858432 2089.597475,400.638640 2085.939050,403.030201 2091.833049,412.050717 2098.278567,407.880414 2097.651136,406.909659 2099.395116,405.628497 2100.061661,406.622411 2105.495786,402.950451 2099.841772,394.180144 2097.131315,396.071855 2092.648897,389.074368 2095.209777,387.468075 2089.768229,379.102948 2083.564234,382.789967 2082.843504,381.739196 2075.363847,386.696290"/>
    <poly id="167278465" type="building.yes" color="255,230,230" fill="1" layer="-1.00" shape="1641.798528,545.156315 1649.590161,553.454489 1670.820768,534.274139 1686.509341,553.118174 1686.507665,555.196525 1691.453701,562.727085 1693.786912,561.682077 1710.953962,580.394515 1696.397525,591.763949 1704.949698,601.102752 1726.751431,581.925012 1704.910375,555.921807 1747.608624,525.313877 1749.428919,528.168991 1757.950384,522.080351 1749.844835,509.628927 1696.052011,545.442080 1672.300670,518.360070 1641.798528,545.156315"/>
    <poly id="167278466" type="building.yes" color="255,230,230" fill="1" layer="-1.00" shape="2139.524333,483.194251 2151.959234,501.706478 2162.898232,494.719998 2162.737283,494.482767 2158.086663,487.559028 2160.092274,486.284105 2160.295239,486.088872 2160.396455,485.835647 2160.394867,485.568863 2160.289944,485.310736 2159.654074,484.362002 2158.251777,482.283601 2158.058321,482.078941 2157.799061,481.972745 2157.513637,481.965958 2157.257551,482.059898 2157.160825,482.124285 2155.251676,483.345931 2150.455418,476.207561 2139.524333,483.194251"/>
    <poly id="167278476" type="building.yes" color="255,230,230" fill="1" layer="-1.00" shape="1426.831040,471.633890 1429.215251,472.790639 1427.868016,475.415088 1430.470803,476.721498 1445.156869,483.659916 1448.099782,485.007727 1455.724410,488.644776 1456.220320,487.467277 1460.624221,487.082492 1460.305513,471.726000 1460.347099,470.304344 1456.062599,470.336296 1455.068089,470.123811 1453.106636,468.199053 1453.885644,467.461715 1451.466930,465.081559 1439.000574,452.171677 1436.982775,456.314037 1434.757082,461.196140 1431.271852,468.349108 1429.015020,467.173144 1426.831040,471.633890"/>
    <poly id="167278488" type="building.yes" color="255,230,230" fill="1" layer="-1.00" shape="2194.138713,629.091838 2204.338971,644.483452 2205.767106,643.472668 2216.264884,659.360416 2214.804773,660.381552 2222.391535,671.921001 2226.991476,668.629423 2226.489886,667.706105 2228.577118,666.333116 2229.615709,668.024993 2231.402463,666.944946 2232.382914,668.413150 2233.173617,669.854612 2232.047283,670.850341 2238.868406,681.226809 2251.109558,673.182254 2242.915286,660.839187 2238.771229,654.638756 2233.614469,646.324718 2223.030291,630.068109 2217.474963,621.500086 2206.653445,628.889382 2202.890154,623.353787 2194.138713,629.091838"/>
    <poly id="167278489" type="building.industrial" color="255,230,230" fill="1" layer="-1.00" shape="1755.669111,446.681748 1757.702706,449.575266 1765.020628,460.118566 1769.470901,457.112092 1769.559431,457.058620 1772.395035,455.236432 1773.096140,454.775143 1798.796855,437.801838 1804.552975,446.629859 1807.701757,444.648401 1804.495163,439.704217 1811.456048,435.201318 1808.764605,431.280765 1805.672451,426.528241 1796.839763,413.292617 1795.846261,412.368781 1795.026727,412.471597 1794.101269,413.361023 1770.577884,433.853687 1763.993277,433.530791 1761.103006,435.985206 1761.144934,441.910174 1756.812315,445.641880 1755.669111,446.681748"/>
    <poly id="167278493" type="building.industrial" color="255,230,230" fill="1" layer="-1.00" shape="1585.796177,289.198799 1592.391088,298.468826 1593.035379,298.061744 1593.298076,298.023510 1603.373702,313.400007 1605.175077,316.054566 1605.599834,316.542548 1624.063789,303.998445 1634.772531,296.672198 1634.373140,296.118129 1641.998936,291.008399 1643.320293,290.150563 1638.617685,283.048171 1639.296854,282.508547 1640.756177,284.532605 1644.716800,281.770070 1641.939522,277.447443 1634.340188,266.375260 1639.280985,262.757913 1637.684994,260.474986 1638.444379,258.559079 1635.720512,254.660068 1596.676398,281.665379 1588.828662,287.103335 1585.796177,289.198799"/>
    <poly id="167278496" type="building.yes" color="255,230,230" fill="1" layer="-1.00" shape="1477.319827,530.434789 1478.144702,537.812034 1479.897897,555.903286 1480.437787,560.239561 1500.026680,562.126009 1506.892929,562.944345 1506.911868,562.144558 1506.928702,561.433637 1506.177734,557.636966 1505.972013,556.609571 1512.175483,557.612277 1511.035586,549.805219 1510.115949,543.081472 1507.650238,543.023084 1502.994731,542.979531 1503.132218,543.538506 1503.782151,546.577006 1500.577267,546.578919 1500.085899,550.579574 1499.126046,550.579075 1499.307946,546.582206 1489.824656,546.735553 1488.589020,536.269898 1487.749315,528.514411 1477.319827,530.434789"/>
    <poly id="167278517" type="building.yes" color="255,230,230" fill="1" layer="-1.00" shape="2288.501588,505.643867 2290.576686,508.783070 2294.120627,514.202351 2295.013084,515.701813 2300.236608,512.213948 2303.482705,516.814791 2299.893762,519.285688 2301.008213,520.790435 2299.402439,521.930345 2299.600116,522.290712 2298.214755,523.169122 2304.670987,532.881216 2312.665231,527.303111 2308.599106,521.160065 2308.915716,520.856397 2313.518974,517.765013 2316.864691,522.512722 2318.366076,521.425904 2319.448280,522.952115 2324.762726,519.310832 2323.812926,517.887801 2326.381223,515.970571 2322.152837,509.645822 2320.729149,510.467743 2318.453741,507.412677 2317.070489,508.202218 2313.676048,510.499906 2313.344118,510.114114 2310.132381,505.402939 2314.813617,502.035550 2313.869625,500.701575 2310.066169,495.187190 2308.213860,492.353374 2302.172362,496.544202 2303.370855,498.184324 2300.576337,499.940576 2296.219911,502.993387 2294.926540,501.339895 2288.501588,505.643867"/>
    <poly id="167278518" type="building.yes" color="255,230,230" fill="1" layer="-1.00" shape="1950.591916,472.947503 1951.411505,474.178437 1952.062207,475.171958 1952.376428,474.968247 1953.539268,475.107006 1953.169885,476.965455 1955.025150,477.342947 1954.813251,478.582729 1954.482646,478.808280 1957.002985,482.580349 1957.317206,482.376637 1958.911887,482.703484 1959.118832,483.008488 1962.269231,480.960455 1962.513956,481.010724 1962.567595,480.756367 1964.001278,479.845691 1970.416776,475.596753 1970.241282,475.303610 1970.576846,473.533274 1971.011576,473.265739 1970.812561,472.960923 1970.595063,473.100245 1967.669294,468.696134 1964.750922,464.314430 1964.968419,464.175109 1964.761474,463.870105 1964.608196,463.977608 1964.197778,464.223493 1962.606258,463.763347 1962.415697,463.436503 1955.976936,467.662668 1954.526867,468.595185 1954.274212,468.544727 1954.236959,468.777245 1953.285840,469.410408 1951.045859,470.868773 1951.252541,471.184885 1950.914066,472.743979 1950.591916,472.947503"/>
    <poly id="167278521" type="building.yes" color="255,230,230" fill="1" layer="-1.00" shape="2160.784689,463.171442 2166.292931,471.393736 2177.590357,464.015682 2172.167222,455.884318 2160.784689,463.171442"/>
    <poly id="167278524" type="building.yes" color="255,230,230" fill="1" layer="-1.00" shape="1967.332837,281.110213 1969.389934,284.348903 1972.080581,282.623384 1969.945517,279.327270 1967.332837,281.110213"/>