<routes xmlns:xsi="http://www.w3.org/2001/XMLSchema-instance" xsi:noNamespaceSchemaLocation="http://sumo.dlr.de/xsd/routes_file.xsd">
  <vType id="car" vClass="passenger"/>
  <vType id="bicycle" vClass="bicycle"/>

    <trip id="357_0" depart="19988.00" from="3765" to="4489" type="car" />
    <trip id="1744_0" depart="20548.00" from="3616" to="5039" type="car" />
    <trip id="1391_0" depart="21458.00" from="2289" to="2638" type="car" />
    <trip id="1448_0" depart="21774.00" from="4725" to="3420" type="car" />
    <trip id="1279_0" depart="21967.00" from="4327" to="1274" type="car" />
    <trip id="2490_0" depart="22361.00" from="3793" to="2722" type="car" />
    <trip id="2286_0" depart="22475.00" from="2932" to="1626" type="car" />
    <trip id="1698_0" depart="22487.00" from="314" to="803" type="car" />
    <trip id="1647_0" depart="22681.00" from="1020" to="4692" type="car" />
    <trip id="2469_0" depart="23027.00" from="3131" to="823" type="car" />
    <trip id="1742_0" depart="23209.00" from="2066" to="4930" type="car" />
    <trip id="414_0" depart="23217.00" from="4323" to="4643" type="car" />
    <trip id="224_0" depart="23239.00" from="3017" to="3076" type="car" />
    <trip id="675_0" depart="23345.00" from="4308" to="663" type="car" />
    <trip id="2491_0" depart="23423.00" from="1502" to="4673" type="car" />
    <trip id="2307_0" depart="23474.00" from="2677" to="4755" type="car" />
    <trip id="1431_0" depart="23482.00" from="2292" to="4055" type="car" />
    <trip id="555_0" depart="23544.00" from="2316" to="2296" type="car" />
    <trip id="1487_0" depart="23592.00" from="1110" to="1724" type="car" />
    <trip id="1735_0" depart="23773.00" from="3815" to="2018" type="car" />
    <trip id="1532_0" depart="23804.00" from="2884" to="2699" type="car" />
    <trip id="2006_0" depart="23808.00" from="3276" to="1636" type="car" />
    <trip id="2488_0" depart="23946.00" from="3076" to="4650" type="car" />
    <trip id="1896_0" depart="24067.00" from="1843" to="5051" type="car" />
    <trip id="503_0" depart="24144.00" from="3081" to="558" type="car" />
    <trip id="1344_0" depart="24159.00" from="3018" to="4035" type="car" />
    <trip id="2224_0" depart="24199.00" from="3880" to="603" type="car" />
    <trip id="2194_0" depart="24212.00" from="3913" to="2286" type="car" />
    <trip id="2498_0" depart="24245.00" from="3327" to="1867" type="car" />
    <trip id="1638_0" depart="24472.00" from="4736" to="5035" type="car" />
    <trip id="1040_0" depart="24518.00" from="4047" to="1511" type="car" />
    <trip id="1654_0" depart="24562.00" from="4035" to="3762" type="car" />
    <trip id="1661_0" depart="24633.00" from="2125" to="1869" type="car" />
    <trip id="1031_0" depart="24666.00" from="3274" to="5074" type="car" />
    <trip id="1101_0" depart="24892.00" from="3871" to="2019" type="car" />
    <trip id="1490_0" depart="24967.00" from="1652" to="2695" type="car" />
    <trip id="558_0" depart="24969.00" from="189" to="1665" type="car" />
    <trip id="654_0" depart="25064.00" from="2742" to="4366" type="car" />
    <trip id="1699_0" depart="25069.00" from="1245" to="3684" type="car" />
    <trip id="2021_0" depart="25083.00" from="103" to="4820" type="car" />
    <trip id="2275_0" depart="25089.00" from="1797" to="3648" type="car" />
    <trip id="2320_0" depart="25089.00" from="391" to="3073" type="car" />
    <trip id="1767_0" depart="25112.00" from="3154" to="1921" type="car" />
    <trip id="1008_0" depart="25137.00" from="2605" to="5042" type="car" />
    <trip id="1748_0" depart="25152.00" from="5019" to="3933" type="car" />
    <trip id="1585_0" depart="25171.00" from="3802" to="695" type="car" />
    <trip id="553_0" depart="25271.00" from="4672" to="2525" type="car" />
    <trip id="1497_0" depart="25315.00" from="1383" to="3025" type="car" />
    <trip id="794_0" depart="25336.00" from="4185" to="4165" type="car" />
    <trip id="443_0" depart="25473.00" from="2058" to="1622" type="car" />
    <trip id="1319_0" depart="25494.00" from="5053" to="3103" type="car" />
    <trip id="1342_0" depart="25531.00" from="2401" to="4409" type="car" />
    <trip id="2384_0" depart="25568.00" from="1703" to="3350" type="car" />
    <trip id="980_0" depart="25579.00" from="740" to="2850" type="car" />
    <trip id="232_0" depart="25589.00" from="5163" to="607" type="car" />
    <trip id="2389_0" depart="25606.00" from="1478" to="4717" type="car" />
    <trip id="1888_0" depart="25651.00" from="1263" to="2739" type="car" />
    <trip id="2492_0" depart="25653.00" from="324" to="4083" type="car" />
    <trip id="207_0" depart="25656.00" from="4178" to="3126" type="car" />
    <trip id="1032_0" depart="25669.00" from="1197" to="4733" type="car" />
    <trip id="2229_0" depart="25696.00" from="3723" to="1555" type="car" />
    <trip id="1657_0" depart="25721.00" from="2691" to="3843" type="car" />
    <trip id="416_0" depart="25731.00" from="360" to="5033" type="car" />
    <trip id="347_0" depart="25742.00" from="3931" to="3790" type="car" />
    <trip id="1753_0" depart="25766.00" from="2661" to="2166" type="car" />
    <trip id="519_0" depart="25766.00" from="1070" to="1129" type="car" />
    <trip id="1246_0" depart="25785.00" from="2374" to="2291" type="car" />
    <trip id="312_0" depart="25795.00" from="4553" to="3736" type="car" />
    <trip id="1891_0" depart="25846.00" from="608" to="885" type="car" />
    <trip id="2303_0" depart="25851.00" from="723" to="571" type="car" />
    <trip id="166_0" depart="25854.00" from="4207" to="3110" type="car" />
    <trip id="863_0" depart="25857.00" from="1277" to="1770" type="car" />
    <trip id="2326_0" depart="25875.00" from="4581" to="1328" type="car" />
    <trip id="1723_0" depart="25912.00" from="181" to="4366" type="car" />
    <trip id="1455_0" depart="25914.00" from="3819" to="1813" type="car" />
    <trip id="1769_0" depart="25930.00" from="3802" to="789" type="car" />
    <trip id="1272_0" depart="25960.00" from="3512" to="935" type="car" />
    <trip id="236_0" depart="25964.00" from="4673" to="4177" type="car" />
    <trip id="341_0" depart="26005.00" from="1514" to="3005" type="car" />
    <trip id="2116_0" depart="26006.00" from="2595" to="1436" type="car" />
    <trip id="270_0" depart="26022.00" from="605" to="2943" type="car" />
    <trip id="2265_0" depart="26033.00" from="2385" to="4133" type="car" />
    <trip id="2128_0" depart="26038.00" from="2814" to="3184" type="car" />
    <trip id="2246_0" depart="26045.00" from="3509" to="5048" type="car" />
    <trip id="2095_0" depart="26063.00" from="1796" to="464" type="car" />
    <trip id="1539_0" depart="26091.00" from="640" to="4817" type="car" />
    <trip id="1952_0" depart="26094.00" from="2723" to="2643" type="car" />
    <trip id="901_0" depart="26099.00" from="892" to="2766" type="car" />
    <trip id="1192_0" depart="26137.00" from="524" to="4830" type="car" />
    <trip id="30_0" depart="26142.00" from="224" to="4921" type="car" />
    <trip id="814_0" depart="26161.00" from="4363" to="1518" type="car" />
    <trip id="1420_0" depart="26183.00" from="1512" to="4086" type="car" />
    <trip id="1093_0" depart="26186.00" from="2333" to="3548" type="car" />
    <trip id="677_0" depart="26186.00" from="954" to="1145" type="car" />
    <trip id="882_0" depart="26196.00" from="2395" to="5042" type="car" />
    <trip id="1558_0" depart="26224.00" from="4439" to="4521" type="car" />
    <trip id="1938_0" depart="26225.00" from="2188" to="1546" type="car" />
    <trip id="2385_0" depart="26232.00" from="3889" to="213" type="car" />
    <trip id="694_0" depart="26268.00" from="4629" to="1701" type="car" />
    <trip id="1905_0" depart="26280.00" from="3725" to="2286" type="car" />
    <trip id="2176_0" depart="26285.00" from="4971" to="2929" type="car" />
    <trip id="351_0" depart="26290.00" from="2768" to="127" type="car" />
    <trip id="741_0" depart="26291.00" from="2974" to="920" type="car" />
    <trip id="1222_0" depart="26318.00" from="4008" to="1200" type="car" />
    <trip id="1664_0" depart="26336.00" from="1433" to="3469" type="car" />
    <trip id="1507_0" depart="26366.00" from="1534" to="1672" type="car" />
    <trip id="1346_0" depart="26369.00" from="4818" to="4040" type="car" />
    <trip id="2007_0" depart="26387.00" from="2623" to="4156" type="car" />
    <trip id="1782_0" depart="26449.00" from="4712" to="253" type="car" />
    <trip id="758_0" depart="26473.00" from="1911" to="3884" type="car" />
    <trip id="1643_0" depart="26477.00" from="1340" to="2707" type="car" />
    <trip id="2231_0" depart="26480.00" from="3319" to="4828" type="car" />
    <trip id="2056_0" depart="26491.00" from="703" to="206" type="car" />
    <trip id="1522_0" depart="26493.00" from="573" to="5037" type="car" />
    <trip id="762_0" depart="26495.00" from="2403" to="2280" type="car" />
    <trip id="1115_0" depart="26496.00" from="1320" to="2418" type="car" />
    <trip id="604_0" depart="26498.00" from="2340" to="474" type="car" />
    <trip id="2097_0" depart="26516.00" from="2253" to="1245" type="car" />
    <trip id="512_0" depart="26559.00" from="2219" to="36" type="car" />
    <trip id="1179_0" depart="26580.00" from="3947" to="2130" type="car" />
    <trip id="1864_0" depart="26595.00" from="4192" to="4462" type="car" />
    <trip id="190_0" depart="26625.00" from="3992" to="3435" type="car" />
    <trip id="920_0" depart="26641.00" from="1632" to="4584" type="car" />
    <trip id="2480_0" depart="26665.00" from="4654" to="1827" type="car" />
    <trip id="334_0" depart="26674.00" from="1834" to="3501" type="car" />
    <trip id="1990_0" depart="26709.00" from="3898" to="4700" type="car" />
    <trip id="103_0" depart="26713.00" from="3769" to="145" type="car" />
    <trip id="869_0" depart="26719.00" from="1088" to="4814" type="car" />
    <trip id="2022_0" depart="26721.00" from="167" to="1903" type="car" />
    <trip id="1931_0" depart="26722.00" from="3636" to="3679" type="car" />
    <trip id="1817_0" depart="26726.00" from="3895" to="1501" type="car" />
    <trip id="15_0" depart="26731.00" from="797" to="4535" type="car" />
    <trip id="2191_0" depart="26732.00" from="1020" to="331" type="car" />
    <trip id="684_0" depart="26738.00" from="1166" to="1803" type="car" />
    <trip id="1663_0" depart="26742.00" from="1045" to="615" type="car" />
    <trip id="537_0" depart="26744.00" from="600" to="2992" type="car" />
    <trip id="152_0" depart="26762.00" from="1249" to="2323" type="car" />
    <trip id="2222_0" depart="26785.00" from="1262" to="2722" type="car" />
    <trip id="1583_0" depart="26804.00" from="2665" to="4641" type="car" />
    <trip id="221_0" depart="26809.00" from="4351" to="232" type="car" />
    <trip id="1710_0" depart="26829.00" from="4540" to="3673" type="car" />
    <trip id="1591_0" depart="26836.00" from="2662" to="853" type="car" />
    <trip id="711_0" depart="26838.00" from="3795" to="4346" type="car" />
    <trip id="1202_0" depart="26848.00" from="5169" to="3610" type="car" />
    <trip id="2485_0" depart="26884.00" from="925" to="3624" type="car" />
    <trip id="1000_0" depart="26893.00" from="1673" to="526" type="car" />
    <trip id="1468_0" depart="26897.00" from="4523" to="175" type="car" />
    <trip id="1623_0" depart="26910.00" from="2767" to="1138" type="car" />
    <trip id="1098_0" depart="26922.00" from="2778" to="1460" type="car" />
    <trip id="563_0" depart="26943.00" from="3056" to="867" type="car" />
    <trip id="2083_0" depart="26975.00" from="3039" to="248" type="car" />
    <trip id="1337_0" depart="26983.00" from="1087" to="719" type="car" />
    <trip id="252_0" depart="26992.00" from="353" to="64" type="car" />
    <trip id="1216_0" depart="27006.00" from="2323" to="4478" type="car" />
    <trip id="1731_0" depart="27008.00" from="1141" to="1658" type="car" />
    <trip id="854_0" depart="27010.00" from="3059" to="4037" type="car" />
    <trip id="1631_0" depart="27021.00" from="1413" to="3022" type="car" />
    <trip id="721_0" depart="27027.00" from="4156" to="3689" type="car" />
    <trip id="1630_0" depart="27047.00" from="1346" to="1350" type="car" />
    <trip id="1512_0" depart="27060.00" from="445" to="1096" type="car" />
    <trip id="87_0" depart="27068.00" from="908" to="2140" type="car" />
    <trip id="2372_0" depart="27069.00" from="996" to="3557" type="car" />
    <trip id="1248_0" depart="27082.00" from="4654" to="3293" type="car" />
    <trip id="1774_0" depart="27082.00" from="4310" to="315" type="car" />
    <trip id="825_0" depart="27083.00" from="3298" to="42" type="car" />
    <trip id="2241_0" depart="27087.00" from="2721" to="3361" type="car" />
    <trip id="1379_0" depart="27105.00" from="218" to="1789" type="car" />
    <trip id="546_0" depart="27123.00" from="719" to="2595" type="car" />
    <trip id="304_0" depart="27133.00" from="3761" to="2092" type="car" />
    <trip id="2135_0" depart="27146.00" from="455" to="2276" type="car" />
    <trip id="1495_0" depart="27149.00" from="3552" to="3622" type="car" />
    <trip id="70_0" depart="27169.00" from="4608" to="1551" type="car" />
    <trip id="592_0" depart="27207.00" from="2114" to="393" type="car" />
    <trip id="919_0" depart="27207.00" from="2090" to="4737" type="car" />
    <trip id="2055_0" depart="27219.00" from="3472" to="1819" type="car" />
    <trip id="991_0" depart="27233.00" from="3610" to="517" type="car" />
    <trip id="95_0" depart="27240.00" from="2376" to="4651" type="car" />
    <trip id="293_0" depart="27246.00" from="3295" to="1514" type="car" />
    <trip id="2155_0" depart="27248.00" from="3519" to="3455" type="car" />
    <trip id="463_0" depart="27250.00" from="4464" to="4824" type="car" />
    <trip id="1282_0" depart="27284.00" from="5034" to="5155" type="car" />
    <trip id="1777_0" depart="27291.00" from="3084" to="4719" type="car" />
    <trip id="1434_0" depart="27294.00" from="682" to="4151" type="car" />
    <trip id="1215_0" depart="27295.00" from="509" to="4167" type="car" />
    <trip id="2166_0" depart="27298.00" from="1808" to="2237" type="car" />
    <trip id="1595_0" depart="27310.00" from="1431" to="930" type="car" />
    <trip id="100_0" depart="27319.00" from="234" to="1825" type="car" />
    <trip id="472_0" depart="27336.00" from="2094" to="5123" type="car" />
    <trip id="1945_0" depart="27338.00" from="1616" to="348" type="car" />
    <trip id="200_0" depart="27338.00" from="3644" to="2944" type="car" />
    <trip id="1197_0" depart="27346.00" from="3630" to="4558" type="car" />
    <trip id="34_0" depart="27356.00" from="1447" to="8" type="car" />
    <trip id="1998_0" depart="27368.00" from="1312" to="213" type="car" />
    <trip id="837_0" depart="27372.00" from="3668" to="2122" type="car" />
    <trip id="2123_0" depart="27402.00" from="4592" to="4808" type="car" />
    <trip id="239_0" depart="27438.00" from="1419" to="2508" type="car" />
    <trip id="2290_0" depart="27447.00" from="4030" to="4554" type="car" />
    <trip id="892_0" depart="27456.00" from="1039" to="4543" type="car" />
    <trip id="1013_0" depart="27465.00" from="3243" to="557" type="car" />
    <trip id="2432_0" depart="27472.00" from="1738" to="1540" type="car" />
    <trip id="240_0" depart="27481.00" from="3547" to="4557" type="car" />
    <trip id="1149_0" depart="27487.00" from="2157" to="2636" type="car" />
    <trip id="2481_0" depart="27504.00" from="3122" to="1442" type="car" />
    <trip id="591_0" depart="27519.00" from="61" to="75" type="car" />
    <trip id="1611_0" depart="27541.00" from="3468" to="1322" type="car" />
    <trip id="2270_0" depart="27547.00" from="4665" to="5083" type="car" />
    <trip id="500_0" depart="27556.00" from="4650" to="151" type="car" />
    <trip id="1190_0" depart="27580.00" from="2699" to="2995" type="car" />
    <trip id="229_0" depart="27593.00" from="198" to="385" type="car" />
    <trip id="1392_0" depart="27598.00" from="683" to="792" type="car" />
    <trip id="2399_0" depart="27606.00" from="2174" to="4661" type="car" />
    <trip id="176_0" depart="27615.00" from="2701" to="4636" type="car" />
    <trip id="1309_0" depart="27619.00" from="3899" to="4938" type="car" />
    <trip id="130_0" depart="27623.00" from="832" to="90" type="car" />
    <trip id="21_0" depart="27641.00" from="2948" to="4771" type="car" />
    <trip id="1840_0" depart="27653.00" from="3076" to="3769" type="car" />
    <trip id="1776_0" depart="27661.00" from="4676" to="2863" type="car" />
    <trip id="1551_0" depart="27663.00" from="3399" to="935" type="car" />
    <trip id="628_0" depart="27665.00" from="3419" to="5158" type="car" />
    <trip id="2024_0" depart="27681.00" from="3519" to="3558" type="car" />
    <trip id="1617_0" depart="27697.00" from="3743" to="990" type="car" />
    <trip id="559_0" depart="27699.00" from="4558" to="483" type="car" />
    <trip id="194_0" depart="27704.00" from="225" to="4939" type="car" />
    <trip id="1608_0" depart="27713.00" from="1296" to="1197" type="car" />
    <trip id="2161_0" depart="27714.00" from="107" to="2203" type="car" />
    <trip id="1182_0" depart="27715.00" from="1840" to="2200" type="car" />
    <trip id="1528_0" depart="27740.00" from="4570" to="4496" type="car" />
    <trip id="2414_0" depart="27740.00" from="2664" to="4189" type="car" />
    <trip id="2207_0" depart="27762.00" from="1446" to="1331" type="car" />
    <trip id="1111_0" depart="27782.00" from="4610" to="2873" type="car" />
    <trip id="1102_0" depart="27800.00" from="2273" to="389" type="car" />
    <trip id="917_0" depart="27808.00" from="3582" to="4695" type="car" />
    <trip id="101_0" depart="27811.00" from="4949" to="1557" type="car" />
    <trip id="1372_0" depart="27830.00" from="59" to="3792" type="car" />
    <trip id="1648_0" depart="27835.00" from="2944" to="2214" type="car" />
    <trip id="2062_0" depart="27842.00" from="4389" to="2064" type="car" />
    <trip id="385_0" depart="27843.00" from="3842" to="2955" type="car" />
    <trip id="480_0" depart="27843.00" from="4355" to="5115" type="car" />
    <trip id="2171_0" depart="27858.00" from="470" to="3093" type="car" />
    <trip id="1950_0" depart="27860.00" from="631" to="1294" type="car" />
    <trip id="397_0" depart="27884.00" from="3861" to="276" type="car" />
    <trip id="971_0" depart="27888.00" from="2045" to="4842" type="car" />
    <trip id="1771_0" depart="27927.00" from="4425" to="2704" type="car" />
    <trip id="910_0" depart="27929.00" from="357" to="851" type="car" />
    <trip id="1159_0" depart="27954.00" from="3424" to="3321" type="car" />
    <trip id="897_0" depart="27961.00" from="2728" to="4637" type="car" />
    <trip id="2192_0" depart="27964.00" from="4614" to="3280" type="car" />
    <trip id="2390_0" depart="27966.00" from="2033" to="4608" type="car" />
    <trip id="619_0" depart="27966.00" from="255" to="2694" type="car" />
    <trip id="2392_0" depart="27972.00" from="1846" to="471" type="car" />
    <trip id="1385_0" depart="27990.00" from="3816" to="4778" type="car" />
    <trip id="770_0" depart="28005.00" from="297" to="1270" type="car" />
    <trip id="1802_0" depart="28009.00" from="384" to="2773" type="car" />
    <trip id="774_0" depart="28011.00" from="2317" to="932" type="car" />
    <trip id="1077_0" depart="28021.00" from="197" to="2271" type="car" />
    <trip id="510_0" depart="28031.00" from="1381" to="2027" type="car" />
    <trip id="724_0" depart="28041.00" from="3030" to="3191" type="car" />
    <trip id="733_0" depart="28042.00" from="4163" to="3328" type="car" />
    <trip id="1129_0" depart="28055.00" from="1406" to="43" type="car" />
    <trip id="542_0" depart="28058.00" from="1900" to="5163" type="car" />
    <trip id="1718_0" depart="28059.00" from="2715" to="3371" type="car" />
    <trip id="1692_0" depart="28060.00" from="619" to="870" type="car" />
    <trip id="2354_0" depart="28061.00" from="2162" to="2304" type="car" />
    <trip id="1964_0" depart="28065.00" from="947" to="3058" type="car" />
    <trip id="911_0" depart="28106.00" from="2976" to="1473" type="car" />
    <trip id="2294_0" depart="28116.00" from="2717" to="5005" type="car" />
    <trip id="586_0" depart="28129.00" from="2802" to="4765" type="car" />
    <trip id="1427_0" depart="28134.00" from="555" to="2154" type="car" />
    <trip id="738_0" depart="28138.00" from="2913" to="993" type="car" />
    <trip id="597_0" depart="28156.00" from="403" to="3841" type="car" />
    <trip id="716_0" depart="28157.00" from="203" to="5025" type="car" />
    <trip id="841_0" depart="28157.00" from="858" to="2928" type="car" />
    <trip id="1474_0" depart="28159.00" from="5127" to="3513" type="car" />
    <trip id="2427_0" depart="28171.00" from="1473" to="4772" type="car" />
    <trip id="557_0" depart="28178.00" from="2159" to="4638" type="car" />
    <trip id="791_0" depart="28179.00" from="3845" to="4167" type="car" />
    <trip id="1694_0" depart="28184.00" from="5030" to="1402" type="car" />
    <trip id="179_0" depart="28186.00" from="628" to="2175" type="car" />
    <trip id="2397_0" depart="28223.00" from="4191" to="1611" type="car" />
    <trip id="725_0" depart="28223.00" from="1326" to="4003" type="car" />
    <trip id="1357_0" depart="28244.00" from="1297" to="3662" type="car" />
    <trip id="1601_0" depart="28254.00" from="166" to="1687" type="car" />
    <trip id="776_0" depart="28284.00" from="2339" to="2055" type="car" />
    <trip id="2245_0" depart="28290.00" from="886" to="2836" type="car" />
    <trip id="1134_0" depart="28315.00" from="3876" to="1726" type="car" />
    <trip id="126_0" depart="28326.00" from="3238" to="2317" type="car" />
    <trip id="1934_0" depart="28330.00" from="1859" to="459" type="car" />
    <trip id="1303_0" depart="28331.00" from="3173" to="1089" type="car" />
    <trip id="1671_0" depart="28347.00" from="4794" to="803" type="car" />
    <trip id="1500_0" depart="28368.00" from="177" to="1772" type="car" />
    <trip id="1038_0" depart="28369.00" from="996" to="2983" type="car" />
    <trip id="2353_0" depart="28375.00" from="290" to="4414" type="car" />
    <trip id="61_0" depart="28379.00" from="5027" to="3920" type="car" />
    <trip id="805_0" depart="28394.00" from="2359" to="594" type="car" />
    <trip id="1217_0" depart="28395.00" from="1316" to="469" type="car" />
    <trip id="1842_0" depart="28403.00" from="3938" to="2616" type="car" />
    <trip id="365_0" depart="28405.00" from="2234" to="239" type="car" />
    <trip id="2409_0" depart="28416.00" from="3142" to="3928" type="car" />
    <trip id="1581_0" depart="28418.00" from="4985" to="1796" type="car" />
    <trip id="900_0" depart="28420.00" from="2861" to="3799" type="car" />
    <trip id="1860_0" depart="28426.00" from="4455" to="3157" type="car" />
    <trip id="1198_0" depart="28430.00" from="4893" to="2249" type="car" />
    <trip id="75_0" depart="28431.00" from="5042" to="325" type="car" />
    <trip id="2415_0" depart="28434.00" from="3266" to="3250" type="car" />
    <trip id="473_0" depart="28437.00" from="3655" to="1823" type="car" />
    <trip id="670_0" depart="28437.00" from="575" to="3250" type="car" />
    <trip id="2355_0" depart="28438.00" from="3508" to="4557" type="car" />
    <trip id="2470_0" depart="28442.00" from="4009" to="2003" type="car" />
    <trip id="1416_0" depart="28443.00" from="2574" to="381" type="car" />
    <trip id="145_0" depart="28445.00" from="1680" to="4722" type="car" />
    <trip id="1305_0" depart="28446.00" from="279" to="538" type="car" />
    <trip id="372_0" depart="28446.00" from="4720" to="869" type="car" />
    <trip id="2272_0" depart="28461.00" from="603" to="4735" type="car" />
    <trip id="667_0" depart="28463.00" from="1735" to="3684" type="car" />
    <trip id="679_0" depart="28483.00" from="3949" to="2704" type="car" />
    <trip id="2078_0" depart="28485.00" from="722" to="4651" type="car" />
    <trip id="830_0" depart="28494.00" from="2417" to="445" type="car" />
    <trip id="313_0" depart="28496.00" from="4083" to="3551" type="car" />
    <trip id="185_0" depart="28498.00" from="5020" to="1523" type="car" />
    <trip id="2061_0" depart="28504.00" from="763" to="2885" type="car" />
    <trip id="2133_0" depart="28506.00" from="2001" to="3800" type="car" />
    <trip id="2386_0" depart="28508.00" from="2959" to="3720" type="car" />
    <trip id="1966_0" depart="28509.00" from="2049" to="4614" type="car" />
    <trip id="1781_0" depart="28512.00" from="1209" to="2688" type="car" />
    <trip id="2255_0" depart="28522.00" from="4182" to="5014" type="car" />
    <trip id="389_0" depart="28522.00" from="3646" to="2950" type="car" />
    <trip id="811_0" depart="28525.00" from="459" to="324" type="car" />
    <trip id="1221_0" depart="28546.00" from="3728" to="1526" type="car" />
    <trip id="1257_0" depart="28549.00" from="4386" to="1296" type="car" />
    <trip id="2430_0" depart="28549.00" from="1017" to="3908" type="car" />
    <trip id="2321_0" depart="28562.00" from="3057" to="2089" type="car" />
    <trip id="1321_0" depart="28564.00" from="4818" to="3788" type="car" />
    <trip id="1935_0" depart="28566.00" from="4424" to="3608" type="car" />
    <trip id="2075_0" depart="28568.00" from="610" to="4660" type="car" />
    <trip id="494_0" depart="28592.00" from="3858" to="4497" type="car" />
    <trip id="1187_0" depart="28593.00" from="4498" to="2209" type="car" />
    <trip id="1234_0" depart="28593.00" from="4766" to="2391" type="car" />
    <trip id="1807_0" depart="28600.00" from="197" to="172" type="car" />
    <trip id="2037_0" depart="28611.00" from="5013" to="4796" type="car" />
    <trip id="988_0" depart="28622.00" from="2065" to="697" type="car" />
    <trip id="306_0" depart="28623.00" from="3277" to="1891" type="car" />
    <trip id="732_0" depart="28625.00" from="1481" to="4728" type="car" />
    <trip id="1685_0" depart="28631.00" from="3609" to="4314" type="car" />
    <trip id="1062_0" depart="28635.00" from="3130" to="785" type="car" />
    <trip id="1560_0" depart="28641.00" from="2169" to="2760" type="car" />
    <trip id="728_0" depart="28644.00" from="5118" to="2882" type="car" />
    <trip id="435_0" depart="28645.00" from="2142" to="5019" type="car" />
    <trip id="337_0" depart="28654.00" from="283" to="3075" type="car" />
    <trip id="874_0" depart="28654.00" from="3361" to="1198" type="car" />
    <trip id="1239_0" depart="28662.00" from="918" to="310" type="car" />
    <trip id="759_0" depart="28663.00" from="1887" to="240" type="car" />
    <trip id="2293_0" depart="28673.00" from="2615" to="2074" type="car" />
    <trip id="444_0" depart="28680.00" from="3103" to="2221" type="car" />
    <trip id="1089_0" depart="28687.00" from="1561" to="1567" type="car" />
    <trip id="173_0" depart="28697.00" from="226" to="4516" type="car" />
    <trip id="981_0" depart="28698.00" from="4034" to="4449" type="car" />
    <trip id="1017_0" depart="28704.00" from="2165" to="3710" type="car" />
    <trip id="387_0" depart="28716.00" from="3793" to="4367" type="car" />
    <trip id="140_0" depart="28733.00" from="346" to="4386" type="car" />
    <trip id="2209_0" depart="28735.00" from="487" to="3144" type="car" />
    <trip id="1559_0" depart="28742.00" from="3730" to="1877" type="car" />
    <trip id="974_0" depart="28746.00" from="874" to="2546" type="car" />
    <trip id="1536_0" depart="28775.00" from="4729" to="5167" type="car" />
    <trip id="1466_0" depart="28779.00" from="4447" to="3021" type="car" />
    <trip id="1325_0" depart="28781.00" from="1092" to="103" type="car" />
    <trip id="1133_0" depart="28790.00" from="1430" to="3082" type="car" />
    <trip id="1656_0" depart="28802.00" from="1419" to="3870" type="car" />
    <trip id="647_0" depart="28802.00" from="4085" to="1872" type="car" />
    <trip id="2175_0" depart="28804.00" from="717" to="2712" type="car" />
    <trip id="799_0" depart="28806.00" from="3143" to="2943" type="car" />
    <trip id="579_0" depart="28808.00" from="4763" to="3651" type="car" />
    <trip id="2003_0" depart="28837.00" from="3794" to="3952" type="car" />
    <trip id="1586_0" depart="28839.00" from="599" to="234" type="car" />
    <trip id="1120_0" depart="28842.00" from="1961" to="2987" type="car" />
    <trip id="964_0" depart="28844.00" from="2725" to="1403" type="car" />
    <trip id="2151_0" depart="28850.00" from="3667" to="3760" type="car" />
    <trip id="812_0" depart="28850.00" from="4946" to="2341" type="car" />
    <trip id="1075_0" depart="28857.00" from="1268" to="3953" type="car" />
    <trip id="2444_0" depart="28865.00" from="3936" to="2990" type="car" />
    <trip id="1019_0" depart="28874.00" from="1778" to="3766" type="car" />
    <trip id="1076_0" depart="28876.00" from="4069" to="1313" type="car" />
    <trip id="1386_0" depart="28878.00" from="4308" to="2428" type="car" />
    <trip id="2157_0" depart="28889.00" from="4429" to="3513" type="car" />
    <trip id="1922_0" depart="28891.00" from="2213" to="3508" type="car" />
    <trip id="916_0" depart="28898.00" from="4088" to="782" type="car" />
    <trip id="984_0" depart="28904.00" from="4317" to="61" type="car" />
    <trip id="2407_0" depart="28907.00" from="716" to="3902" type="car" />
    <trip id="561_0" depart="28913.00" from="1665" to="2878" type="car" />
    <trip id="1052_0" depart="28915.00" from="877" to="2702" type="car" />
    <trip id="2206_0" depart="28916.00" from="2196" to="3605" type="car" />
    <trip id="1442_0" depart="28922.00" from="2437" to="2217" type="car" />
    <trip id="2020_0" depart="28923.00" from="2741" to="2979" type="car" />
    <trip id="849_0" depart="28923.00" from="2508" to="4002" type="car" />
    <trip id="1395_0" depart="28925.00" from="4761" to="1921" type="car" />
    <trip id="1850_0" depart="28925.00" from="2326" to="4413" type="car" />
    <trip id="2043_0" depart="28927.00" from="4459" to="2919" type="car" />