<routes xmlns:xsi="http://www.w3.org/2001/XMLSchema-instance" xsi:noNamespaceSchemaLocation="http://sumo.dlr.de/xsd/routes_file.xsd">
    <vType id="car" vClass="passenger" />
    <vType id="bicycle" vClass="bicycle" />
    <trip id="2418_0" depart="19485.00" from="309" to="504" type="car" />
    <trip id="4852_0" depart="19632.00" from="583" to="112" type="car" />
    <trip id="2260_0" depart="19883.00" from="57" to="358" type="car" />
    <trip id="1656_0" depart="20701.00" from="167" to="624" type="car" />
    <trip id="2449_0" depart="20901.00" from="339" to="569" type="car" />
    <trip id="2593_0" depart="21495.00" from="625" to="389" type="car" />
    <trip id="272_0" depart="21620.00" from="350" to="123" type="car" />
    <trip id="3862_0" depart="21621.00" from="189" to="50" type="car" />
    <trip id="143_0" depart="21910.00" from="428" to="207" type="car" />
    <trip id="3777_0" depart="21966.00" from="327" to="219" type="car" />
    <trip id="4088_0" depart="22264.00" from="603" to="215" type="car" />
    <trip id="937_0" depart="22268.00" from="275" to="522" type="car" />
    <trip id="2212_0" depart="22580.00" from="124" to="267" type="car" />
    <trip id="3804_0" depart="22613.00" from="421" to="442" type="car" />
    <trip id="740_0" depart="22665.00" from="144" to="400" type="car" />
    <trip id="4207_0" depart="22717.00" from="19" to="73" type="car" />
    <trip id="1119_0" depart="22734.00" from="293" to="184" type="car" />
    <trip id="1070_0" depart="22938.00" from="257" to="348" type="car" />
    <trip id="2300_0" depart="22987.00" from="551" to="56" type="car" />
    <trip id="3491_0" depart="23159.00" from="32" to="192" type="car" />
    <trip id="4816_0" depart="23253.00" from="124" to="182" type="car" />
    <trip id="1240_0" depart="23344.00" from="66" to="627" type="car" />
    <trip id="2632_0" depart="23344.00" from="69" to="255" type="car" />
    <trip id="3072_0" depart="23411.00" from="109" to="150" type="car" />
    <trip id="1691_0" depart="23456.00" from="64" to="450" type="car" />
    <trip id="3766_0" depart="23461.00" from="140" to="510" type="car" />
    <trip id="470_0" depart="23515.00" from="582" to="566" type="car" />
    <trip id="4655_0" depart="23547.00" from="285" to="566" type="car" />
    <trip id="3317_0" depart="23557.00" from="335" to="402" type="car" />
    <trip id="2133_0" depart="23573.00" from="431" to="497" type="car" />
    <trip id="2812_0" depart="23631.00" from="439" to="545" type="car" />
    <trip id="2339_0" depart="23660.00" from="544" to="21" type="car" />
    <trip id="2214_0" depart="23691.00" from="599" to="162" type="car" />
    <trip id="4597_0" depart="23712.00" from="426" to="410" type="car" />
    <trip id="1020_0" depart="23808.00" from="6" to="49" type="car" />
    <trip id="4520_0" depart="23850.00" from="139" to="598" type="car" />
    <trip id="1052_0" depart="23857.00" from="380" to="342" type="car" />
    <trip id="3108_0" depart="23860.00" from="505" to="95" type="car" />
    <trip id="1682_0" depart="23877.00" from="423" to="451" type="car" />
    <trip id="2667_0" depart="23880.00" from="301" to="533" type="car" />
    <trip id="947_0" depart="23899.00" from="540" to="126" type="car" />
    <trip id="1654_0" depart="23917.00" from="529" to="477" type="car" />
    <trip id="4991_0" depart="23917.00" from="149" to="181" type="car" />
    <trip id="3319_0" depart="23964.00" from="435" to="556" type="car" />
    <trip id="1144_0" depart="23969.00" from="174" to="438" type="car" />
    <trip id="1696_0" depart="23973.00" from="27" to="295" type="car" />
    <trip id="3642_0" depart="24004.00" from="116" to="90" type="car" />
    <trip id="1823_0" depart="24026.00" from="130" to="124" type="car" />
    <trip id="2553_0" depart="24066.00" from="127" to="377" type="car" />
    <trip id="759_0" depart="24088.00" from="15" to="74" type="car" />
    <trip id="76_0" depart="24094.00" from="144" to="310" type="car" />
    <trip id="3243_0" depart="24114.00" from="343" to="147" type="car" />
    <trip id="4181_0" depart="24120.00" from="116" to="529" type="car" />
    <trip id="2786_0" depart="24128.00" from="116" to="166" type="car" />
    <trip id="2670_0" depart="24138.00" from="331" to="472" type="car" />
    <trip id="2501_0" depart="24153.00" from="404" to="476" type="car" />
    <trip id="2379_0" depart="24177.00" from="12" to="331" type="car" />
    <trip id="1671_0" depart="24181.00" from="477" to="385" type="car" />
    <trip id="234_0" depart="24183.00" from="236" to="256" type="car" />
    <trip id="4005_0" depart="24196.00" from="465" to="212" type="car" />
    <trip id="2089_0" depart="24237.00" from="460" to="99" type="car" />
    <trip id="1989_0" depart="24240.00" from="181" to="556" type="car" />
    <trip id="376_0" depart="24241.00" from="126" to="540" type="car" />
    <trip id="377_0" depart="24249.00" from="255" to="232" type="car" />
    <trip id="1177_0" depart="24336.00" from="533" to="465" type="car" />
    <trip id="2469_0" depart="24372.00" from="202" to="193" type="car" />
    <trip id="2744_0" depart="24388.00" from="281" to="30" type="car" />
    <trip id="2768_0" depart="24449.00" from="235" to="570" type="car" />
    <trip id="2947_0" depart="24458.00" from="110" to="296" type="car" />
    <trip id="3738_0" depart="24460.00" from="452" to="161" type="car" />
    <trip id="3371_0" depart="24496.00" from="610" to="471" type="car" />
    <trip id="3896_0" depart="24559.00" from="368" to="562" type="car" />
    <trip id="1259_0" depart="24562.00" from="56" to="400" type="car" />
    <trip id="1274_0" depart="24656.00" from="557" to="593" type="car" />
    <trip id="1373_0" depart="24681.00" from="12" to="598" type="car" />
    <trip id="2684_0" depart="24727.00" from="422" to="366" type="car" />
    <trip id="3929_0" depart="24737.00" from="273" to="434" type="car" />
    <trip id="4254_0" depart="24745.00" from="114" to="8" type="car" />
    <trip id="1228_0" depart="24767.00" from="181" to="250" type="car" />
    <trip id="3052_0" depart="24824.00" from="241" to="472" type="car" />
    <trip id="318_0" depart="24829.00" from="222" to="140" type="car" />
    <trip id="220_0" depart="24862.00" from="621" to="475" type="car" />
    <trip id="3182_0" depart="24890.00" from="370" to="357" type="car" />
    <trip id="3866_0" depart="24890.00" from="359" to="327" type="car" />
    <trip id="1389_0" depart="24901.00" from="406" to="135" type="car" />
    <trip id="4902_0" depart="24903.00" from="114" to="183" type="car" />
    <trip id="4788_0" depart="24908.00" from="278" to="469" type="car" />
    <trip id="1686_0" depart="24913.00" from="218" to="279" type="car" />
    <trip id="2626_0" depart="24954.00" from="246" to="581" type="car" />
    <trip id="2977_0" depart="24964.00" from="85" to="528" type="car" />
    <trip id="2413_0" depart="24968.00" from="324" to="479" type="car" />
    <trip id="784_0" depart="24970.00" from="47" to="449" type="car" />
    <trip id="491_0" depart="24972.00" from="126" to="49" type="car" />
    <trip id="4322_0" depart="24997.00" from="286" to="622" type="car" />
    <trip id="1023_0" depart="25029.00" from="190" to="478" type="car" />
    <trip id="4409_0" depart="25032.00" from="123" to="501" type="car" />
    <trip id="2592_0" depart="25043.00" from="202" to="183" type="car" />
    <trip id="3719_0" depart="25063.00" from="19" to="599" type="car" />
    <trip id="2505_0" depart="25064.00" from="456" to="308" type="car" />
    <trip id="3971_0" depart="25084.00" from="437" to="526" type="car" />
    <trip id="187_0" depart="25090.00" from="407" to="546" type="car" />
    <trip id="86_0" depart="25103.00" from="426" to="196" type="car" />
    <trip id="4649_0" depart="25108.00" from="372" to="240" type="car" />
    <trip id="3717_0" depart="25117.00" from="335" to="84" type="car" />
    <trip id="3563_0" depart="25120.00" from="601" to="500" type="car" />
    <trip id="744_0" depart="25125.00" from="297" to="508" type="car" />
    <trip id="2298_0" depart="25157.00" from="477" to="367" type="car" />
    <trip id="1631_0" depart="25167.00" from="500" to="308" type="car" />
    <trip id="4976_0" depart="25180.00" from="430" to="92" type="car" />
    <trip id="1203_0" depart="25211.00" from="301" to="387" type="car" />
    <trip id="3188_0" depart="25216.00" from="181" to="413" type="car" />
    <trip id="1250_0" depart="25230.00" from="233" to="605" type="car" />
    <trip id="4318_0" depart="25231.00" from="193" to="18" type="car" />
    <trip id="163_0" depart="25243.00" from="213" to="194" type="car" />
    <trip id="3102_0" depart="25246.00" from="484" to="529" type="car" />
    <trip id="641_0" depart="25251.00" from="152" to="5" type="car" />
    <trip id="3972_0" depart="25257.00" from="235" to="106" type="car" />
    <trip id="4519_0" depart="25266.00" from="32" to="123" type="car" />
    <trip id="349_0" depart="25273.00" from="289" to="25" type="car" />
    <trip id="2575_0" depart="25292.00" from="627" to="545" type="car" />
    <trip id="4962_0" depart="25302.00" from="539" to="128" type="car" />
    <trip id="3434_0" depart="25305.00" from="292" to="148" type="car" />
    <trip id="1677_0" depart="25310.00" from="282" to="297" type="car" />
    <trip id="178_0" depart="25340.00" from="96" to="401" type="car" />
    <trip id="4087_0" depart="25345.00" from="502" to="604" type="car" />
    <trip id="1972_0" depart="25361.00" from="131" to="220" type="car" />
    <trip id="949_0" depart="25385.00" from="524" to="513" type="car" />
    <trip id="3021_0" depart="25387.00" from="23" to="54" type="car" />
    <trip id="4918_0" depart="25400.00" from="178" to="190" type="car" />
    <trip id="131_0" depart="25425.00" from="571" to="493" type="car" />
    <trip id="2334_0" depart="25444.00" from="103" to="224" type="car" />
    <trip id="329_0" depart="25447.00" from="466" to="250" type="car" />
    <trip id="399_0" depart="25465.00" from="242" to="195" type="car" />
    <trip id="3620_0" depart="25492.00" from="523" to="428" type="car" />
    <trip id="1178_0" depart="25514.00" from="625" to="359" type="car" />
    <trip id="3481_0" depart="25527.00" from="159" to="517" type="car" />
    <trip id="4904_0" depart="25541.00" from="11" to="372" type="car" />
    <trip id="2699_0" depart="25579.00" from="503" to="179" type="car" />
    <trip id="218_0" depart="25589.00" from="294" to="502" type="car" />
    <trip id="1913_0" depart="25601.00" from="6" to="228" type="car" />
    <trip id="429_0" depart="25601.00" from="376" to="443" type="car" />
    <trip id="2091_0" depart="25604.00" from="385" to="229" type="car" />
    <trip id="1990_0" depart="25608.00" from="369" to="529" type="car" />
    <trip id="4604_0" depart="25608.00" from="350" to="375" type="car" />
    <trip id="1321_0" depart="25628.00" from="459" to="160" type="car" />
    <trip id="963_0" depart="25641.00" from="351" to="296" type="car" />
    <trip id="996_0" depart="25643.00" from="284" to="470" type="car" />
    <trip id="3565_0" depart="25645.00" from="299" to="337" type="car" />
    <trip id="1848_0" depart="25646.00" from="58" to="608" type="car" />
    <trip id="4173_0" depart="25659.00" from="454" to="340" type="car" />
    <trip id="1353_0" depart="25669.00" from="154" to="312" type="car" />
    <trip id="1420_0" depart="25669.00" from="454" to="14" type="car" />
    <trip id="3291_0" depart="25683.00" from="571" to="585" type="car" />
    <trip id="733_0" depart="25686.00" from="295" to="268" type="car" />
    <trip id="2476_0" depart="25703.00" from="126" to="524" type="car" />
    <trip id="3194_0" depart="25709.00" from="279" to="288" type="car" />
    <trip id="409_0" depart="25711.00" from="600" to="605" type="car" />
    <trip id="4579_0" depart="25715.00" from="286" to="327" type="car" />
    <trip id="2120_0" depart="25780.00" from="368" to="569" type="car" />
    <trip id="4613_0" depart="25781.00" from="431" to="514" type="car" />
    <trip id="4041_0" depart="25797.00" from="301" to="48" type="car" />
    <trip id="646_0" depart="25804.00" from="67" to="2" type="car" />
    <trip id="4521_0" depart="25810.00" from="119" to="338" type="car" />
    <trip id="4047_0" depart="25813.00" from="389" to="594" type="car" />
    <trip id="3600_0" depart="25815.00" from="340" to="103" type="car" />
    <trip id="1604_0" depart="25825.00" from="414" to="457" type="car" />
    <trip id="3716_0" depart="25833.00" from="244" to="575" type="car" />
    <trip id="4107_0" depart="25838.00" from="271" to="187" type="car" />
    <trip id="153_0" depart="25852.00" from="612" to="191" type="car" />
    <trip id="3218_0" depart="25856.00" from="359" to="222" type="car" />
    <trip id="2123_0" depart="25860.00" from="216" to="350" type="car" />
    <trip id="898_0" depart="25885.00" from="197" to="598" type="car" />
    <trip id="375_0" depart="25897.00" from="161" to="583" type="car" />
    <trip id="3315_0" depart="25933.00" from="239" to="21" type="car" />
    <trip id="1190_0" depart="25939.00" from="299" to="18" type="car" />
    <trip id="2696_0" depart="25950.00" from="458" to="140" type="car" />
    <trip id="3140_0" depart="25977.00" from="228" to="100" type="car" />
    <trip id="1307_0" depart="25991.00" from="335" to="305" type="car" />
    <trip id="2232_0" depart="25998.00" from="163" to="467" type="car" />
    <trip id="4801_0" depart="25999.00" from="475" to="595" type="car" />
    <trip id="487_0" depart="25999.00" from="306" to="425" type="car" />
    <trip id="1400_0" depart="26005.00" from="541" to="468" type="car" />
    <trip id="3521_0" depart="26011.00" from="248" to="229" type="car" />
    <trip id="3305_0" depart="26014.00" from="276" to="13" type="car" />
    <trip id="2694_0" depart="26031.00" from="217" to="352" type="car" />
    <trip id="4648_0" depart="26055.00" from="167" to="592" type="car" />
    <trip id="628_0" depart="26056.00" from="270" to="71" type="car" />
    <trip id="4568_0" depart="26063.00" from="32" to="193" type="car" />
    <trip id="4598_0" depart="26066.00" from="247" to="283" type="car" />
    <trip id="2926_0" depart="26072.00" from="215" to="609" type="car" />
    <trip id="4116_0" depart="26083.00" from="55" to="394" type="car" />
    <trip id="685_0" depart="26089.00" from="277" to="90" type="car" />
    <trip id="4551_0" depart="26094.00" from="198" to="236" type="car" />
    <trip id="4980_0" depart="26094.00" from="545" to="584" type="car" />
    <trip id="2522_0" depart="26102.00" from="185" to="18" type="car" />
    <trip id="4541_0" depart="26117.00" from="434" to="216" type="car" />
    <trip id="3312_0" depart="26134.00" from="230" to="108" type="car" />
    <trip id="4695_0" depart="26136.00" from="311" to="377" type="car" />
    <trip id="2288_0" depart="26151.00" from="535" to="113" type="car" />
    <trip id="823_0" depart="26173.00" from="299" to="125" type="car" />
    <trip id="1674_0" depart="26177.00" from="106" to="301" type="car" />
    <trip id="2948_0" depart="26183.00" from="221" to="30" type="car" />
    <trip id="2302_0" depart="26190.00" from="279" to="394" type="car" />
    <trip id="3544_0" depart="26196.00" from="576" to="232" type="car" />
    <trip id="509_0" depart="26196.00" from="480" to="239" type="car" />
    <trip id="4509_0" depart="26201.00" from="577" to="283" type="car" />
    <trip id="3950_0" depart="26217.00" from="251" to="630" type="car" />
    <trip id="2827_0" depart="26226.00" from="516" to="464" type="car" />
    <trip id="3772_0" depart="26228.00" from="500" to="586" type="car" />
    <trip id="489_0" depart="26231.00" from="98" to="244" type="car" />
    <trip id="737_0" depart="26231.00" from="70" to="135" type="car" />
    <trip id="1086_0" depart="26262.00" from="350" to="461" type="car" />
    <trip id="4349_0" depart="26281.00" from="397" to="310" type="car" />
    <trip id="2605_0" depart="26283.00" from="121" to="376" type="car" />
    <trip id="1872_0" depart="26289.00" from="216" to="306" type="car" />
    <trip id="2598_0" depart="26293.00" from="562" to="621" type="car" />
    <trip id="323_0" depart="26300.00" from="388" to="126" type="car" />
    <trip id="2733_0" depart="26309.00" from="137" to="95" type="car" />
    <trip id="4502_0" depart="26309.00" from="525" to="569" type="car" />
    <trip id="4506_0" depart="26320.00" from="17" to="332" type="car" />
    <trip id="4347_0" depart="26324.00" from="17" to="255" type="car" />
    <trip id="4661_0" depart="26327.00" from="513" to="406" type="car" />
    <trip id="2806_0" depart="26328.00" from="586" to="555" type="car" />
    <trip id="4977_0" depart="26335.00" from="613" to="379" type="car" />
    <trip id="2193_0" depart="26341.00" from="247" to="278" type="car" />
    <trip id="3306_0" depart="26358.00" from="605" to="621" type="car" />
    <trip id="2645_0" depart="26362.00" from="167" to="148" type="car" />
    <trip id="3156_0" depart="26364.00" from="288" to="149" type="car" />
    <trip id="2739_0" depart="26374.00" from="520" to="470" type="car" />
    <trip id="4650_0" depart="26376.00" from="537" to="278" type="car" />
    <trip id="3918_0" depart="26386.00" from="452" to="341" type="car" />
    <trip id="3096_0" depart="26396.00" from="225" to="619" type="car" />
    <trip id="1066_0" depart="26401.00" from="483" to="32" type="car" />
    <trip id="2013_0" depart="26406.00" from="53" to="13" type="car" />
    <trip id="1633_0" depart="26410.00" from="303" to="371" type="car" />
    <trip id="950_0" depart="26413.00" from="470" to="116" type="car" />
    <trip id="4826_0" depart="26415.00" from="357" to="201" type="car" />
    <trip id="3551_0" depart="26421.00" from="595" to="2" type="car" />
    <trip id="3592_0" depart="26425.00" from="394" to="130" type="car" />
    <trip id="1841_0" depart="26435.00" from="223" to="167" type="car" />
    <trip id="2939_0" depart="26435.00" from="465" to="597" type="car" />
    <trip id="4660_0" depart="26438.00" from="389" to="509" type="car" />
    <trip id="1998_0" depart="26439.00" from="484" to="124" type="car" />
    <trip id="855_0" depart="26445.00" from="584" to="251" type="car" />
    <trip id="386_0" depart="26457.00" from="469" to="196" type="car" />
    <trip id="2497_0" depart="26465.00" from="208" to="457" type="car" />
    <trip id="1683_0" depart="26475.00" from="540" to="349" type="car" />
    <trip id="2370_0" depart="26500.00" from="434" to="404" type="car" />
    <trip id="1606_0" depart="26509.00" from="170" to="586" type="car" />
    <trip id="2230_0" depart="26511.00" from="615" to="461" type="car" />
    <trip id="3530_0" depart="26526.00" from="169" to="475" type="car" />
    <trip id="3752_0" depart="26532.00" from="323" to="79" type="car" />
    <trip id="981_0" depart="26540.00" from="374" to="444" type="car" />
    <trip id="3442_0" depart="26551.00" from="359" to="76" type="car" />
    <trip id="4276_0" depart="26557.00" from="468" to="375" type="car" />
    <trip id="2658_0" depart="26561.00" from="85" to="188" type="car" />
    <trip id="2520_0" depart="26568.00" from="306" to="18" type="car" />
    <trip id="2287_0" depart="26571.00" from="151" to="302" type="car" />
    <trip id="188_0" depart="26589.00" from="189" to="373" type="car" />
    <trip id="4901_0" depart="26589.00" from="3" to="608" type="car" />
    <trip id="750_0" depart="26589.00" from="57" to="299" type="car" />
    <trip id="911_0" depart="26590.00" from="508" to="354" type="car" />
    <trip id="3920_0" depart="26593.00" from="495" to="53" type="car" />
    <trip id="1405_0" depart="26600.00" from="580" to="373" type="car" />
    <trip id="3672_0" depart="26601.00" from="464" to="277" type="car" />
    <trip id="3995_0" depart="26602.00" from="380" to="331" type="car" />
    <trip id="118_0" depart="26616.00" from="249" to="169" type="car" />
    <trip id="2056_0" depart="26623.00" from="200" to="506" type="car" />
    <trip id="848_0" depart="26625.00" from="527" to="72" type="car" />
    <trip id="4407_0" depart="26634.00" from="242" to="293" type="car" />
    <trip id="2211_0" depart="26642.00" from="628" to="466" type="car" />
    <trip id="1622_0" depart="26643.00" from="350" to="10" type="car" />
    <trip id="379_0" depart="26648.00" from="499" to="253" type="car" />
    <trip id="1411_0" depart="26652.00" from="75" to="452" type="car" />
    <trip id="2688_0" depart="26662.00" from="434" to="215" type="car" />
    <trip id="1734_0" depart="26663.00" from="411" to="585" type="car" />
    <trip id="2190_0" depart="26669.00" from="233" to="450" type="car" />
    <trip id="2679_0" depart="26692.00" from="504" to="105" type="car" />
    <trip id="4348_0" depart="26692.00" from="566" to="363" type="car" />
    <trip id="3240_0" depart="26695.00" from="139" to="104" type="car" />
    <trip id="1263_0" depart="26724.00" from="116" to="75" type="car" />
    <trip id="2094_0" depart="26733.00" from="113" to="292" type="car" />
    <trip id="490_0" depart="26737.00" from="11" to="614" type="car" />
    <trip id="2966_0" depart="26752.00" from="534" to="377" type="car" />
    <trip id="2719_0" depart="26757.00" from="480" to="618" type="car" />
    <trip id="1761_0" depart="26759.00" from="13" to="511" type="car" />
    <trip id="4574_0" depart="26759.00" from="219" to="441" type="car" />
    <trip id="3569_0" depart="26769.00" from="55" to="231" type="car" />
    <trip id="1638_0" depart="26794.00" from="354" to="176" type="car" />
    <trip id="3967_0" depart="26796.00" from="72" to="497" type="car" />
    <trip id="4084_0" depart="26803.00" from="533" to="309" type="car" />
    <trip id="383_0" depart="26818.00" from="516" to="1" type="car" />
    <trip id="1315_0" depart="26851.00" from="307" to="272" type="car" />
    <trip id="4718_0" depart="26856.00" from="154" to="606" type="car" />
    <trip id="1812_0" depart="26863.00" from="471" to="530" type="car" />
    <trip id="522_0" depart="26868.00" from="530" to="107" type="car" />
    <trip id="4317_0" depart="26870.00" from="309" to="128" type="car" />
    <trip id="1968_0" depart="26877.00" from="187" to="531" type="car" />
    <trip id="3729_0" depart="26878.00" from="234" to="127" type="car" />
    <trip id="4504_0" depart="26884.00" from="178" to="218" type="car" />
    <trip id="67_0" depart="26886.00" from="613" to="340" type="car" />
    <trip id="258_0" depart="26888.00" from="155" to="23" type="car" />
    <trip id="4387_0" depart="26890.00" from="569" to="88" type="car" />
    <trip id="564_0" depart="26901.00" from="75" to="459" type="car" />
    <trip id="8_0" depart="26903.00" from="224" to="12" type="car" />
    <trip id="2586_0" depart="26904.00" from="69" to="231" type="car" />
    <trip id="431_0" depart="26907.00" from="101" to="212" type="car" />
    <trip id="2438_0" depart="26909.00" from="510" to="462" type="car" />
    <trip id="2529_0" depart="26913.00" from="229" to="557" type="car" />
    <trip id="4508_0" depart="26919.00" from="188" to="222" type="car" />
    <trip id="4771_0" depart="26925.00" from="454" to="89" type="car" />
    <trip id="4884_0" depart="26929.00" from="240" to="199" type="car" />
    <trip id="2134_0" depart="26933.00" from="216" to="380" type="car" />
    <trip id="3362_0" depart="26933.00" from="408" to="533" type="car" />
    <trip id="3655_0" depart="26940.00" from="17" to="294" type="car" />
    <trip id="4587_0" depart="26954.00" from="61" to="363" type="car" />
    <trip id="1336_0" depart="26955.00" from="492" to="395" type="car" />
    <trip id="583_0" depart="26963.00" from="404" to="188" type="car" />
    <trip id="762_0" depart="26972.00" from="240" to="56" type="car" />
    <trip id="910_0" depart="26973.00" from="586" to="591" type="car" />
    <trip id="458_0" depart="26979.00" from="517" to="452" type="car" />
    <trip id="2514_0" depart="26980.00" from="61" to="148" type="car" />
    <trip id="1498_0" depart="26995.00" from="226" to="175" type="car" />
    <trip id="3627_0" depart="26996.00" from="135" to="501" type="car" />
    <trip id="4876_0" depart="27000.00" from="497" to="533" type="car" />
    <trip id="4034_0" depart="27013.00" from="65" to="242" type="car" />
    <trip id="2204_0" depart="27021.00" from="162" to="55" type="car" />
    <trip id="2740_0" depart="27026.00" from="27" to="3" type="car" />
    <trip id="266_0" depart="27038.00" from="30" to="511" type="car" />
    <trip id="21_0" depart="27043.00" from="161" to="237" type="car" />
    <trip id="3352_0" depart="27044.00" from="618" to="127" type="car" />
    <trip id="677_0" depart="27045.00" from="475" to="535" type="car" />
    <trip id="1809_0" depart="27056.00" from="612" to="519" type="car" />
    <trip id="3153_0" depart="27065.00" from="78" to="233" type="car" />
    <trip id="2635_0" depart="27069.00" from="532" to="162" type="car" />
    <trip id="3751_0" depart="27080.00" from="238" to="97" type="car" />
    <trip id="658_0" depart="27085.00" from="285" to="437" type="car" />
    <trip id="2880_0" depart="27089.00" from="590" to="143" type="car" />
    <trip id="4712_0" depart="27090.00" from="593" to="467" type="car" />
    <trip id="4615_0" depart="27093.00" from="532" to="69" type="car" />
    <trip id="2728_0" depart="27109.00" from="506" to="566" type="car" />
    <trip id="1911_0" depart="27113.00" from="585" to="588" type="car" />
    <trip id="4356_0" depart="27118.00" from="134" to="526" type="car" />
    <trip id="3467_0" depart="27126.00" from="50" to="268" type="car" />
    <trip id="2053_0" depart="27132.00" from="469" to="395" type="car" />
    <trip id="4385_0" depart="27134.00" from="367" to="235" type="car" />
    <trip id="2088_0" depart="27147.00" from="429" to="145" type="car" />
    <trip id="1970_0" depart="27148.00" from="353" to="67" type="car" />
    <trip id="412_0" depart="27156.00" from="522" to="195" type="car" />
    <trip id="988_0" depart="27158.00" from="235" to="435" type="car" />
    <trip id="3187_0" depart="27160.00" from="387" to="140" type="car" />
    <trip id="2252_0" depart="27161.00" from="289" to="182" type="car" />
    <trip id="3564_0" depart="27163.00" from="279" to="624" type="car" />
    <trip id="955_0" depart="27168.00" from="47" to="544" type="car" />
    <trip id="1251_0" depart="27180.00" from="94" to="72" type="car" />
    <trip id="2058_0" depart="27183.00" from="294" to="71" type="car" />
    <trip id="253_0" depart="27185.00" from="290" to="405" type="car" />
    <trip id="1249_0" depart="27186.00" from="567" to="230" type="car" />
    <trip id="1905_0" depart="27187.00" from="250" to="47" type="car" />
    <trip id="4029_0" depart="27189.00" from="571" to="387" type="car" />
    <trip id="1564_0" depart="27196.00" from="509" to="396" type="car" />
    <trip id="1244_0" depart="27200.00" from="256" to="75" type="car" />
    <trip id="2606_0" depart="27205.00" from="274" to="421" type="car" />
    <trip id="2979_0" depart="27208.00" from="455" to="180" type="car" />
    <trip id="2274_0" depart="27210.00" from="404" to="620" type="car" />
    <trip id="3234_0" depart="27235.00" from="120" to="552" type="car" />
    <trip id="2830_0" depart="27238.00" from="252" to="231" type="car" />
    <trip id="4662_0" depart="27240.00" from="356" to="230" type="car" />
    <trip id="672_0" depart="27248.00" from="367" to="403" type="car" />
    <trip id="3846_0" depart="27256.00" from="161" to="14" type="car" />
    <trip id="2186_0" depart="27260.00" from="474" to="570" type="car" />
    <trip id="4044_0" depart="27261.00" from="186" to="325" type="car" />
    <trip id="655_0" depart="27268.00" from="441" to="538" type="car" />
    <trip id="749_0" depart="27271.00" from="599" to="378" type="car" />
    <trip id="1333_0" depart="27274.00" from="522" to="390" type="car" />
    <trip id="1568_0" depart="27286.00" from="196" to="238" type="car" />
    <trip id="539_0" depart="27287.00" from="280" to="432" type="car" />
    <trip id="4019_0" depart="27302.00" from="581" to="399" type="car" />
    <trip id="1084_0" depart="27304.00" from="361" to="238" type="car" />
    <trip id="1470_0" depart="27307.00" from="446" to="114" type="car" />
    <trip id="3949_0" depart="27311.00" from="363" to="6" type="car" />
    <trip id="603_0" depart="27313.00" from="504" to="473" type="car" />
    <trip id="3649_0" depart="27315.00" from="24" to="578" type="car" />
    <trip id="2114_0" depart="27316.00" from="190" to="8" type="car" />
    <trip id="3047_0" depart="27317.00" from="274" to="27" type="car" />
    <trip id="1295_0" depart="27323.00" from="456" to="385" type="car" />
    <trip id="4149_0" depart="27323.00" from="199" to="552" type="car" />
    <trip id="299_0" depart="27326.00" from="479" to="377" type="car" />
    <trip id="397_0" depart="27327.00" from="193" to="283" type="car" />
    <trip id="2513_0" depart="27328.00" from="511" to="575" type="car" />
    <trip id="3784_0" depart="27336.00" from="522" to="537" type="car" />
    <trip id="255_0" depart="27337.00" from="280" to="57" type="car" />
    <trip id="321_0" depart="27342.00" from="556" to="78" type="car" />
    <trip id="1341_0" depart="27355.00" from="525" to="374" type="car" />
    <trip id="244_0" depart="27355.00" from="356" to="274" type="car" />
    <trip id="1643_0" depart="27364.00" from="505" to="546" type="car" />
    <trip id="371_0" depart="27368.00" from="387" to="3" type="car" />
    <trip id="404_0" depart="27369.00" from="458" to="154" type="car" />
    <trip id="4971_0" depart="27372.00" from="623" to="146" type="car" />
    <trip id="4247_0" depart="27377.00" from="536" to="592" type="car" />
    <trip id="666_0" depart="27392.00" from="528" to="440" type="car" />
    <trip id="3799_0" depart="27393.00" from="144" to="604" type="car" />
    <trip id="2708_0" depart="27404.00" from="244" to="600" type="car" />
    <trip id="3931_0" depart="27406.00" from="295" to="549" type="car" />
    <trip id="156_0" depart="27408.00" from="102" to="146" type="car" />