<routes xmlns:xsi="http://www.w3.org/2001/XMLSchema-instance" xsi:noNamespaceSchemaLocation="http://sumo.dlr.de/xsd/routes_file.xsd">
    <vType id="car" vClass="passenger" />
    <vType id="bicycle" vClass="bicycle" />
    <trip id="7011_0" depart="19186.00" from="579" to="301" type="car" />
    <trip id="12609_0" depart="19794.00" from="294" to="543" type="car" />
    <trip id="11368_0" depart="19964.00" from="139" to="104" type="car" />
    <trip id="8101_0" depart="20464.00" from="473" to="295" type="car" />
    <trip id="12282_0" depart="20575.00" from="99" to="339" type="car" />
    <trip id="9050_0" depart="20674.00" from="11" to="296" type="car" />
    <trip id="12460_0" depart="21074.00" from="195" to="155" type="car" />
    <trip id="5931_0" depart="21336.00" from="463" to="247" type="car" />
    <trip id="10500_0" depart="21581.00" from="363" to="19" type="car" />
    <trip id="179_0" depart="21587.00" from="208" to="48" type="car" />
    <trip id="9437_0" depart="21697.00" from="223" to="571" type="car" />
    <trip id="11255_0" depart="21728.00" from="411" to="267" type="car" />
    <trip id="14242_0" depart="21735.00" from="291" to="605" type="car" />
    <trip id="13359_0" depart="21767.00" from="587" to="613" type="car" />
    <trip id="3957_0" depart="21858.00" from="349" to="121" type="car" />
    <trip id="699_0" depart="21873.00" from="84" to="373" type="car" />
    <trip id="7260_0" depart="21888.00" from="597" to="149" type="car" />
    <trip id="11616_0" depart="22005.00" from="409" to="545" type="car" />
    <trip id="13392_0" depart="22018.00" from="63" to="380" type="car" />
    <trip id="6233_0" depart="22090.00" from="154" to="165" type="car" />
    <trip id="928_0" depart="22113.00" from="483" to="239" type="car" />
    <trip id="13092_0" depart="22139.00" from="288" to="266" type="car" />
    <trip id="4476_0" depart="22159.00" from="375" to="129" type="car" />
    <trip id="12938_0" depart="22173.00" from="597" to="538" type="car" />
    <trip id="14591_0" depart="22195.00" from="589" to="581" type="car" />
    <trip id="400_0" depart="22227.00" from="403" to="521" type="car" />
    <trip id="14084_0" depart="22240.00" from="557" to="617" type="car" />
    <trip id="5056_0" depart="22259.00" from="234" to="280" type="car" />
    <trip id="1855_0" depart="22297.00" from="440" to="210" type="car" />
    <trip id="6351_0" depart="22349.00" from="169" to="614" type="car" />
    <trip id="14139_0" depart="22360.00" from="160" to="178" type="car" />
    <trip id="12318_0" depart="22395.00" from="228" to="176" type="car" />
    <trip id="5507_0" depart="22395.00" from="142" to="379" type="car" />
    <trip id="11902_0" depart="22489.00" from="552" to="192" type="car" />
    <trip id="67_0" depart="22533.00" from="613" to="340" type="car" />
    <trip id="311_0" depart="22549.00" from="280" to="2" type="car" />
    <trip id="9310_0" depart="22568.00" from="187" to="516" type="car" />
    <trip id="10885_0" depart="22573.00" from="484" to="410" type="car" />
    <trip id="11572_0" depart="22574.00" from="2" to="32" type="car" />
    <trip id="11178_0" depart="22585.00" from="178" to="540" type="car" />
    <trip id="7673_0" depart="22598.00" from="229" to="264" type="car" />
    <trip id="12792_0" depart="22608.00" from="565" to="62" type="car" />
    <trip id="7686_0" depart="22610.00" from="567" to="327" type="car" />
    <trip id="1595_0" depart="22634.00" from="476" to="82" type="car" />
    <trip id="993_0" depart="22666.00" from="104" to="218" type="car" />
    <trip id="9091_0" depart="22719.00" from="58" to="365" type="car" />
    <trip id="2676_0" depart="22736.00" from="214" to="109" type="car" />
    <trip id="7022_0" depart="22744.00" from="136" to="447" type="car" />
    <trip id="12748_0" depart="22836.00" from="235" to="542" type="car" />
    <trip id="1965_0" depart="22851.00" from="139" to="21" type="car" />
    <trip id="8650_0" depart="22876.00" from="432" to="160" type="car" />
    <trip id="14029_0" depart="22912.00" from="175" to="251" type="car" />
    <trip id="929_0" depart="22935.00" from="176" to="564" type="car" />
    <trip id="8407_0" depart="22955.00" from="3" to="566" type="car" />
    <trip id="6609_0" depart="22977.00" from="268" to="358" type="car" />
    <trip id="187_0" depart="22989.00" from="407" to="546" type="car" />
    <trip id="5699_0" depart="23005.00" from="423" to="352" type="car" />
    <trip id="10640_0" depart="23012.00" from="7" to="277" type="car" />
    <trip id="4218_0" depart="23054.00" from="253" to="205" type="car" />
    <trip id="653_0" depart="23057.00" from="256" to="285" type="car" />
    <trip id="12685_0" depart="23108.00" from="73" to="294" type="car" />
    <trip id="991_0" depart="23126.00" from="465" to="526" type="car" />
    <trip id="14800_0" depart="23146.00" from="590" to="61" type="car" />
    <trip id="805_0" depart="23198.00" from="58" to="585" type="car" />
    <trip id="13039_0" depart="23207.00" from="122" to="48" type="car" />
    <trip id="11851_0" depart="23221.00" from="154" to="495" type="car" />
    <trip id="4794_0" depart="23230.00" from="625" to="139" type="car" />
    <trip id="9750_0" depart="23233.00" from="182" to="158" type="car" />
    <trip id="7973_0" depart="23264.00" from="406" to="399" type="car" />
    <trip id="6088_0" depart="23276.00" from="581" to="438" type="car" />
    <trip id="11624_0" depart="23313.00" from="49" to="83" type="car" />
    <trip id="5761_0" depart="23330.00" from="103" to="405" type="car" />
    <trip id="969_0" depart="23339.00" from="473" to="376" type="car" />
    <trip id="6778_0" depart="23346.00" from="366" to="50" type="car" />
    <trip id="11685_0" depart="23355.00" from="395" to="88" type="car" />
    <trip id="10391_0" depart="23356.00" from="584" to="575" type="car" />
    <trip id="4192_0" depart="23372.00" from="537" to="542" type="car" />
    <trip id="9027_0" depart="23375.00" from="575" to="324" type="car" />
    <trip id="2140_0" depart="23387.00" from="231" to="376" type="car" />
    <trip id="13793_0" depart="23389.00" from="117" to="479" type="car" />
    <trip id="2244_0" depart="23407.00" from="288" to="352" type="car" />
    <trip id="14624_0" depart="23423.00" from="456" to="522" type="car" />
    <trip id="13771_0" depart="23449.00" from="15" to="20" type="car" />
    <trip id="5716_0" depart="23458.00" from="222" to="483" type="car" />
    <trip id="2550_0" depart="23462.00" from="70" to="521" type="car" />
    <trip id="3024_0" depart="23481.00" from="327" to="465" type="car" />
    <trip id="4598_0" depart="23502.00" from="247" to="283" type="car" />
    <trip id="3890_0" depart="23507.00" from="283" to="195" type="car" />
    <trip id="5926_0" depart="23549.00" from="21" to="208" type="car" />
    <trip id="14823_0" depart="23558.00" from="246" to="46" type="car" />
    <trip id="4233_0" depart="23570.00" from="12" to="76" type="car" />
    <trip id="12767_0" depart="23584.00" from="183" to="280" type="car" />
    <trip id="1604_0" depart="23584.00" from="414" to="457" type="car" />
    <trip id="194_0" depart="23587.00" from="85" to="407" type="car" />
    <trip id="7040_0" depart="23590.00" from="6" to="423" type="car" />
    <trip id="5729_0" depart="23595.00" from="629" to="628" type="car" />
    <trip id="1336_0" depart="23632.00" from="492" to="395" type="car" />
    <trip id="11792_0" depart="23671.00" from="578" to="411" type="car" />
    <trip id="11242_0" depart="23674.00" from="336" to="64" type="car" />
    <trip id="14607_0" depart="23717.00" from="481" to="516" type="car" />
    <trip id="6639_0" depart="23728.00" from="193" to="283" type="car" />
    <trip id="14064_0" depart="23745.00" from="131" to="551" type="car" />
    <trip id="6107_0" depart="23764.00" from="463" to="189" type="car" />
    <trip id="7111_0" depart="23771.00" from="375" to="192" type="car" />
    <trip id="1290_0" depart="23773.00" from="108" to="296" type="car" />
    <trip id="4223_0" depart="23778.00" from="113" to="179" type="car" />
    <trip id="6659_0" depart="23790.00" from="358" to="459" type="car" />
    <trip id="1878_0" depart="23806.00" from="111" to="471" type="car" />
    <trip id="7426_0" depart="23830.00" from="145" to="541" type="car" />
    <trip id="14872_0" depart="23849.00" from="74" to="100" type="car" />
    <trip id="11094_0" depart="23851.00" from="434" to="354" type="car" />
    <trip id="5647_0" depart="23866.00" from="183" to="257" type="car" />
    <trip id="11324_0" depart="23867.00" from="264" to="68" type="car" />
    <trip id="2172_0" depart="23867.00" from="524" to="286" type="car" />
    <trip id="14306_0" depart="23869.00" from="545" to="587" type="car" />
    <trip id="13587_0" depart="23873.00" from="422" to="219" type="car" />
    <trip id="3989_0" depart="23873.00" from="479" to="397" type="car" />
    <trip id="3671_0" depart="23874.00" from="526" to="534" type="car" />
    <trip id="2487_0" depart="23876.00" from="520" to="89" type="car" />
    <trip id="13160_0" depart="23890.00" from="299" to="255" type="car" />
    <trip id="8646_0" depart="23914.00" from="211" to="630" type="car" />
    <trip id="2924_0" depart="23932.00" from="355" to="70" type="car" />
    <trip id="11694_0" depart="23934.00" from="77" to="480" type="car" />
    <trip id="13753_0" depart="23934.00" from="294" to="71" type="car" />
    <trip id="8168_0" depart="23976.00" from="28" to="600" type="car" />
    <trip id="14820_0" depart="23980.00" from="264" to="195" type="car" />
    <trip id="14261_0" depart="23982.00" from="312" to="614" type="car" />
    <trip id="14353_0" depart="23989.00" from="199" to="567" type="car" />
    <trip id="2201_0" depart="24006.00" from="589" to="233" type="car" />
    <trip id="2262_0" depart="24030.00" from="50" to="358" type="car" />
    <trip id="618_0" depart="24041.00" from="477" to="177" type="car" />
    <trip id="2308_0" depart="24042.00" from="450" to="197" type="car" />
    <trip id="796_0" depart="24043.00" from="503" to="526" type="car" />
    <trip id="5856_0" depart="24047.00" from="356" to="234" type="car" />
    <trip id="13475_0" depart="24057.00" from="82" to="131" type="car" />
    <trip id="14885_0" depart="24058.00" from="142" to="154" type="car" />
    <trip id="2181_0" depart="24063.00" from="469" to="49" type="car" />
    <trip id="14112_0" depart="24065.00" from="120" to="382" type="car" />
    <trip id="4832_0" depart="24067.00" from="481" to="491" type="car" />
    <trip id="374_0" depart="24070.00" from="484" to="608" type="car" />
    <trip id="12061_0" depart="24081.00" from="203" to="473" type="car" />
    <trip id="4393_0" depart="24089.00" from="243" to="189" type="car" />
    <trip id="9124_0" depart="24090.00" from="222" to="400" type="car" />
    <trip id="14768_0" depart="24101.00" from="363" to="258" type="car" />
    <trip id="9504_0" depart="24111.00" from="110" to="259" type="car" />
    <trip id="13322_0" depart="24112.00" from="205" to="626" type="car" />
    <trip id="14903_0" depart="24112.00" from="440" to="613" type="car" />
    <trip id="4509_0" depart="24119.00" from="577" to="283" type="car" />
    <trip id="8381_0" depart="24119.00" from="527" to="450" type="car" />
    <trip id="13008_0" depart="24138.00" from="292" to="123" type="car" />
    <trip id="4573_0" depart="24142.00" from="471" to="88" type="car" />
    <trip id="6867_0" depart="24147.00" from="582" to="457" type="car" />
    <trip id="6389_0" depart="24164.00" from="71" to="8" type="car" />
    <trip id="10744_0" depart="24177.00" from="399" to="211" type="car" />
    <trip id="2219_0" depart="24177.00" from="152" to="58" type="car" />
    <trip id="8654_0" depart="24177.00" from="226" to="600" type="car" />
    <trip id="1970_0" depart="24180.00" from="353" to="67" type="car" />
    <trip id="6916_0" depart="24181.00" from="601" to="235" type="car" />
    <trip id="9243_0" depart="24191.00" from="155" to="630" type="car" />
    <trip id="14208_0" depart="24219.00" from="421" to="389" type="car" />
    <trip id="4382_0" depart="24222.00" from="431" to="122" type="car" />
    <trip id="1262_0" depart="24227.00" from="58" to="547" type="car" />
    <trip id="334_0" depart="24230.00" from="348" to="555" type="car" />
    <trip id="4220_0" depart="24234.00" from="137" to="477" type="car" />
    <trip id="6130_0" depart="24242.00" from="520" to="205" type="car" />
    <trip id="11022_0" depart="24249.00" from="32" to="575" type="car" />
    <trip id="4471_0" depart="24252.00" from="520" to="606" type="car" />
    <trip id="4833_0" depart="24262.00" from="337" to="479" type="car" />
    <trip id="10572_0" depart="24287.00" from="555" to="14" type="car" />
    <trip id="9892_0" depart="24287.00" from="494" to="563" type="car" />
    <trip id="9030_0" depart="24302.00" from="231" to="383" type="car" />
    <trip id="1404_0" depart="24311.00" from="141" to="118" type="car" />
    <trip id="8694_0" depart="24312.00" from="507" to="71" type="car" />
    <trip id="6501_0" depart="24313.00" from="432" to="462" type="car" />
    <trip id="11853_0" depart="24314.00" from="184" to="290" type="car" />
    <trip id="11861_0" depart="24317.00" from="260" to="242" type="car" />
    <trip id="13407_0" depart="24318.00" from="352" to="447" type="car" />
    <trip id="2706_0" depart="24323.00" from="87" to="310" type="car" />
    <trip id="6224_0" depart="24337.00" from="467" to="557" type="car" />
    <trip id="11538_0" depart="24338.00" from="125" to="428" type="car" />
    <trip id="6664_0" depart="24342.00" from="528" to="497" type="car" />
    <trip id="10193_0" depart="24346.00" from="287" to="595" type="car" />
    <trip id="1637_0" depart="24346.00" from="233" to="13" type="car" />
    <trip id="9048_0" depart="24349.00" from="567" to="167" type="car" />
    <trip id="12192_0" depart="24356.00" from="306" to="445" type="car" />
    <trip id="355_0" depart="24370.00" from="27" to="14" type="car" />
    <trip id="11619_0" depart="24376.00" from="196" to="93" type="car" />
    <trip id="4948_0" depart="24386.00" from="139" to="122" type="car" />
    <trip id="8224_0" depart="24397.00" from="112" to="48" type="car" />
    <trip id="11006_0" depart="24401.00" from="620" to="461" type="car" />
    <trip id="4528_0" depart="24414.00" from="495" to="472" type="car" />
    <trip id="13544_0" depart="24426.00" from="61" to="548" type="car" />
    <trip id="8744_0" depart="24430.00" from="18" to="521" type="car" />
    <trip id="9315_0" depart="24456.00" from="463" to="362" type="car" />
    <trip id="13225_0" depart="24460.00" from="509" to="432" type="car" />
    <trip id="4182_0" depart="24463.00" from="499" to="159" type="car" />
    <trip id="11585_0" depart="24469.00" from="288" to="408" type="car" />
    <trip id="1397_0" depart="24470.00" from="511" to="240" type="car" />
    <trip id="12031_0" depart="24481.00" from="582" to="2" type="car" />
    <trip id="1377_0" depart="24483.00" from="210" to="327" type="car" />
    <trip id="156_0" depart="24490.00" from="102" to="146" type="car" />
    <trip id="6774_0" depart="24490.00" from="292" to="228" type="car" />
    <trip id="5742_0" depart="24509.00" from="177" to="249" type="car" />
    <trip id="13665_0" depart="24517.00" from="12" to="310" type="car" />
    <trip id="10951_0" depart="24531.00" from="544" to="515" type="car" />
    <trip id="5277_0" depart="24532.00" from="578" to="61" type="car" />
    <trip id="9626_0" depart="24533.00" from="615" to="568" type="car" />
    <trip id="12036_0" depart="24534.00" from="543" to="70" type="car" />
    <trip id="4619_0" depart="24534.00" from="291" to="119" type="car" />
    <trip id="8073_0" depart="24549.00" from="145" to="152" type="car" />
    <trip id="4447_0" depart="24550.00" from="104" to="176" type="car" />
    <trip id="7123_0" depart="24555.00" from="32" to="170" type="car" />
    <trip id="243_0" depart="24559.00" from="165" to="622" type="car" />
    <trip id="3643_0" depart="24564.00" from="277" to="508" type="car" />
    <trip id="4297_0" depart="24569.00" from="406" to="586" type="car" />
    <trip id="9840_0" depart="24571.00" from="188" to="151" type="car" />
    <trip id="7993_0" depart="24581.00" from="25" to="458" type="car" />
    <trip id="7125_0" depart="24585.00" from="66" to="264" type="car" />
    <trip id="5091_0" depart="24592.00" from="99" to="251" type="car" />
    <trip id="11852_0" depart="24593.00" from="619" to="477" type="car" />
    <trip id="13914_0" depart="24593.00" from="493" to="21" type="car" />
    <trip id="3355_0" depart="24594.00" from="57" to="209" type="car" />
    <trip id="6553_0" depart="24598.00" from="16" to="69" type="car" />
    <trip id="13034_0" depart="24607.00" from="117" to="75" type="car" />
    <trip id="1356_0" depart="24626.00" from="226" to="162" type="car" />
    <trip id="1021_0" depart="24629.00" from="196" to="438" type="car" />
    <trip id="7543_0" depart="24636.00" from="290" to="11" type="car" />
    <trip id="3060_0" depart="24645.00" from="231" to="142" type="car" />
    <trip id="5920_0" depart="24650.00" from="266" to="98" type="car" />
    <trip id="6962_0" depart="24660.00" from="22" to="480" type="car" />
    <trip id="10086_0" depart="24663.00" from="372" to="502" type="car" />
    <trip id="3469_0" depart="24668.00" from="253" to="16" type="car" />
    <trip id="6089_0" depart="24670.00" from="570" to="519" type="car" />
    <trip id="12956_0" depart="24674.00" from="240" to="370" type="car" />
    <trip id="865_0" depart="24700.00" from="222" to="627" type="car" />
    <trip id="1022_0" depart="24703.00" from="405" to="178" type="car" />
    <trip id="14634_0" depart="24704.00" from="555" to="151" type="car" />
    <trip id="12486_0" depart="24712.00" from="429" to="208" type="car" />
    <trip id="1344_0" depart="24723.00" from="280" to="91" type="car" />
    <trip id="3987_0" depart="24729.00" from="325" to="130" type="car" />
    <trip id="11078_0" depart="24732.00" from="290" to="99" type="car" />
    <trip id="5787_0" depart="24733.00" from="251" to="503" type="car" />
    <trip id="6148_0" depart="24740.00" from="360" to="312" type="car" />
    <trip id="6090_0" depart="24744.00" from="566" to="95" type="car" />
    <trip id="713_0" depart="24757.00" from="123" to="31" type="car" />
    <trip id="718_0" depart="24757.00" from="372" to="581" type="car" />
    <trip id="3829_0" depart="24763.00" from="81" to="482" type="car" />
    <trip id="7228_0" depart="24779.00" from="473" to="91" type="car" />
    <trip id="8784_0" depart="24784.00" from="547" to="76" type="car" />
    <trip id="4543_0" depart="24786.00" from="402" to="6" type="car" />
    <trip id="14999_0" depart="24788.00" from="433" to="130" type="car" />
    <trip id="7818_0" depart="24788.00" from="480" to="549" type="car" />
    <trip id="14534_0" depart="24789.00" from="115" to="549" type="car" />
    <trip id="2275_0" depart="24795.00" from="463" to="85" type="car" />
    <trip id="262_0" depart="24800.00" from="212" to="101" type="car" />
    <trip id="3931_0" depart="24805.00" from="295" to="549" type="car" />
    <trip id="6297_0" depart="24805.00" from="246" to="198" type="car" />
    <trip id="7795_0" depart="24805.00" from="223" to="481" type="car" />
    <trip id="2096_0" depart="24808.00" from="332" to="299" type="car" />
    <trip id="1056_0" depart="24814.00" from="446" to="150" type="car" />
    <trip id="3287_0" depart="24822.00" from="409" to="218" type="car" />
    <trip id="7672_0" depart="24833.00" from="540" to="349" type="car" />
    <trip id="1517_0" depart="24834.00" from="493" to="590" type="car" />
    <trip id="10025_0" depart="24839.00" from="442" to="98" type="car" />
    <trip id="9529_0" depart="24841.00" from="289" to="511" type="car" />
    <trip id="8687_0" depart="24850.00" from="500" to="19" type="car" />
    <trip id="12845_0" depart="24864.00" from="16" to="110" type="car" />
    <trip id="4357_0" depart="24867.00" from="388" to="21" type="car" />
    <trip id="4422_0" depart="24869.00" from="410" to="156" type="car" />
    <trip id="12389_0" depart="24870.00" from="628" to="470" type="car" />
    <trip id="12185_0" depart="24878.00" from="537" to="498" type="car" />
    <trip id="11327_0" depart="24887.00" from="25" to="118" type="car" />
    <trip id="541_0" depart="24888.00" from="457" to="78" type="car" />
    <trip id="9402_0" depart="24890.00" from="352" to="294" type="car" />
    <trip id="14087_0" depart="24896.00" from="232" to="236" type="car" />
    <trip id="10298_0" depart="24899.00" from="517" to="530" type="car" />
    <trip id="5093_0" depart="24902.00" from="359" to="372" type="car" />
    <trip id="1599_0" depart="24909.00" from="468" to="250" type="car" />
    <trip id="7142_0" depart="24910.00" from="198" to="257" type="car" />
    <trip id="12050_0" depart="24919.00" from="453" to="375" type="car" />
    <trip id="6273_0" depart="24920.00" from="121" to="201" type="car" />
    <trip id="11744_0" depart="24927.00" from="436" to="446" type="car" />
    <trip id="7797_0" depart="24934.00" from="378" to="125" type="car" />
    <trip id="8188_0" depart="24934.00" from="4" to="131" type="car" />
    <trip id="1046_0" depart="24936.00" from="145" to="129" type="car" />
    <trip id="3392_0" depart="24936.00" from="113" to="439" type="car" />
    <trip id="13151_0" depart="24939.00" from="260" to="22" type="car" />
    <trip id="8799_0" depart="24942.00" from="201" to="510" type="car" />
    <trip id="11055_0" depart="24947.00" from="236" to="126" type="car" />
    <trip id="8315_0" depart="24952.00" from="346" to="96" type="car" />
    <trip id="10450_0" depart="24955.00" from="67" to="169" type="car" />
    <trip id="2713_0" depart="24961.00" from="510" to="508" type="car" />
    <trip id="3183_0" depart="24965.00" from="83" to="166" type="car" />
    <trip id="4924_0" depart="24966.00" from="366" to="388" type="car" />
    <trip id="6557_0" depart="24980.00" from="53" to="192" type="car" />
    <trip id="14394_0" depart="24983.00" from="195" to="127" type="car" />
    <trip id="1465_0" depart="24985.00" from="17" to="76" type="car" />
    <trip id="6847_0" depart="24988.00" from="541" to="26" type="car" />
    <trip id="14075_0" depart="24991.00" from="483" to="512" type="car" />
    <trip id="11761_0" depart="24994.00" from="133" to="30" type="car" />
    <trip id="10954_0" depart="24995.00" from="592" to="394" type="car" />
    <trip id="3521_0" depart="24996.00" from="248" to="229" type="car" />
    <trip id="8091_0" depart="24999.00" from="595" to="151" type="car" />
    <trip id="12544_0" depart="25008.00" from="56" to="547" type="car" />
    <trip id="7303_0" depart="25009.00" from="49" to="422" type="car" />
    <trip id="8382_0" depart="25011.00" from="521" to="297" type="car" />
    <trip id="10879_0" depart="25012.00" from="535" to="599" type="car" />
    <trip id="10731_0" depart="25018.00" from="179" to="474" type="car" />
    <trip id="14246_0" depart="25020.00" from="259" to="237" type="car" />
    <trip id="10741_0" depart="25022.00" from="229" to="234" type="car" />
    <trip id="13899_0" depart="25023.00" from="140" to="384" type="car" />
    <trip id="4926_0" depart="25023.00" from="400" to="248" type="car" />
    <trip id="14736_0" depart="25033.00" from="30" to="624" type="car" />
    <trip id="9183_0" depart="25039.00" from="256" to="424" type="car" />
    <trip id="11823_0" depart="25045.00" from="469" to="30" type="car" />
    <trip id="14371_0" depart="25046.00" from="180" to="331" type="car" />
    <trip id="14190_0" depart="25061.00" from="281" to="611" type="car" />
    <trip id="6786_0" depart="25062.00" from="154" to="345" type="car" />
    <trip id="7859_0" depart="25066.00" from="499" to="90" type="car" />
    <trip id="14661_0" depart="25069.00" from="458" to="306" type="car" />
    <trip id="7791_0" depart="25079.00" from="277" to="408" type="car" />
    <trip id="9161_0" depart="25088.00" from="262" to="125" type="car" />
    <trip id="13952_0" depart="25089.00" from="189" to="356" type="car" />
    <trip id="3962_0" depart="25090.00" from="169" to="191" type="car" />
    <trip id="10637_0" depart="25092.00" from="3" to="77" type="car" />
    <trip id="14088_0" depart="25097.00" from="544" to="380" type="car" />
    <trip id="11219_0" depart="25100.00" from="611" to="96" type="car" />
    <trip id="13760_0" depart="25115.00" from="215" to="193" type="car" />
    <trip id="5784_0" depart="25115.00" from="51" to="92" type="car" />
    <trip id="9388_0" depart="25115.00" from="545" to="297" type="car" />
    <trip id="13625_0" depart="25124.00" from="48" to="68" type="car" />
    <trip id="11172_0" depart="25126.00" from="603" to="404" type="car" />
    <trip id="13380_0" depart="25126.00" from="211" to="96" type="car" />
    <trip id="9695_0" depart="25143.00" from="52" to="528" type="car" />
    <trip id="11118_0" depart="25144.00" from="81" to="385" type="car" />
    <trip id="6410_0" depart="25144.00" from="260" to="480" type="car" />
    <trip id="13898_0" depart="25146.00" from="124" to="616" type="car" />
    <trip id="8913_0" depart="25148.00" from="55" to="518" type="car" />
    <trip id="4851_0" depart="25153.00" from="365" to="353" type="car" />
    <trip id="318_0" depart="25156.00" from="222" to="140" type="car" />
    <trip id="2424_0" depart="25158.00" from="346" to="184" type="car" />
    <trip id="11074_0" depart="25165.00" from="147" to="630" type="car" />
    <trip id="12892_0" depart="25166.00" from="556" to="272" type="car" />
    <trip id="14920_0" depart="25175.00" from="459" to="148" type="car" />
    <trip id="2056_0" depart="25181.00" from="200" to="506" type="car" />
    <trip id="13716_0" depart="25183.00" from="63" to="409" type="car" />
    <trip id="10540_0" depart="25199.00" from="551" to="370" type="car" />
    <trip id="8765_0" depart="25199.00" from="212" to="282" type="car" />
    <trip id="1460_0" depart="25207.00" from="429" to="598" type="car" />
    <trip id="1494_0" depart="25207.00" from="131" to="370" type="car" />
    <trip id="13382_0" depart="25208.00" from="148" to="246" type="car" />
    <trip id="13410_0" depart="25214.00" from="546" to="467" type="car" />
    <trip id="13435_0" depart="25217.00" from="63" to="408" type="car" />
    <trip id="4460_0" depart="25234.00" from="461" to="114" type="car" />
    <trip id="1757_0" depart="25236.00" from="435" to="140" type="car" />
    <trip id="10516_0" depart="25237.00" from="545" to="333" type="car" />
    <trip id="5708_0" depart="25239.00" from="586" to="175" type="car" />
    <trip id="14323_0" depart="25243.00" from="94" to="378" type="car" />
    <trip id="13826_0" depart="25246.00" from="285" to="588" type="car" />
    <trip id="12607_0" depart="25251.00" from="261" to="48" type="car" />
    <trip id="11598_0" depart="25257.00" from="105" to="136" type="car" />
    <trip id="10693_0" depart="25259.00" from="571" to="196" type="car" />
    <trip id="9213_0" depart="25261.00" from="610" to="139" type="car" />
    <trip id="7985_0" depart="25262.00" from="538" to="389" type="car" />
    <trip id="1860_0" depart="25276.00" from="470" to="476" type="car" />
    <trip id="11539_0" depart="25278.00" from="114" to="89" type="car" />
    <trip id="1192_0" depart="25283.00" from="342" to="8" type="car" />
    <trip id="1879_0" depart="25301.00" from="576" to="405" type="car" />
    <trip id="8195_0" depart="25301.00" from="138" to="89" type="car" />
    <trip id="1869_0" depart="25305.00" from="440" to="144" type="car" />
    <trip id="4004_0" depart="25311.00" from="463" to="230" type="car" />
    <trip id="5547_0" depart="25313.00" from="349" to="264" type="car" />
    <trip id="394_0" depart="25324.00" from="159" to="471" type="car" />
    <trip id="2222_0" depart="25327.00" from="103" to="186" type="car" />
    <trip id="10274_0" depart="25328.00" from="63" to="131" type="car" />
    <trip id="12813_0" depart="25331.00" from="334" to="175" type="car" />
    <trip id="6324_0" depart="25347.00" from="268" to="230" type="car" />
    <trip id="8225_0" depart="25347.00" from="6" to="92" type="car" />
    <trip id="7393_0" depart="25349.00" from="169" to="76" type="car" />
    <trip id="14500_0" depart="25351.00" from="206" to="394" type="car" />
    <trip id="5639_0" depart="25355.00" from="269" to="571" type="car" />
    <trip id="6125_0" depart="25357.00" from="325" to="124" type="car" />
    <trip id="5003_0" depart="25358.00" from="26" to="85" type="car" />
    <trip id="6203_0" depart="25364.00" from="26" to="87" type="car" />
    <trip id="8472_0" depart="25375.00" from="216" to="402" type="car" />
    <trip id="7855_0" depart="25378.00" from="540" to="539" type="car" />
    <trip id="2287_0" depart="25381.00" from="151" to="302" type="car" />
    <trip id="11497_0" depart="25383.00" from="335" to="470" type="car" />
    <trip id="864_0" depart="25388.00" from="71" to="82" type="car" />
    <trip id="12461_0" depart="25394.00" from="301" to="451" type="car" />
    <trip id="2981_0" depart="25402.00" from="496" to="289" type="car" />
    <trip id="4118_0" depart="25409.00" from="120" to="243" type="car" />
    <trip id="14956_0" depart="25413.00" from="508" to="285" type="car" />
    <trip id="7182_0" depart="25417.00" from="13" to="264" type="car" />
    <trip id="10763_0" depart="25421.00" from="449" to="253" type="car" />
    <trip id="11567_0" depart="25421.00" from="146" to="591" type="car" />
    <trip id="942_0" depart="25421.00" from="429" to="59" type="car" />
    <trip id="12098_0" depart="25427.00" from="438" to="459" type="car" />
    <trip id="2649_0" depart="25428.00" from="597" to="140" type="car" />
    <trip id="2035_0" depart="25429.00" from="123" to="343" type="car" />
    <trip id="9484_0" depart="25433.00" from="174" to="529" type="car" />
    <trip id="7804_0" depart="25436.00" from="374" to="626" type="car" />