<routes xmlns:xsi="http://www.w3.org/2001/XMLSchema-instance" xsi:noNamespaceSchemaLocation="http://sumo.dlr.de/xsd/routes_file.xsd">
    
    <vType id="car" vClass="passenger" />
    <vType id="bicycle" vClass="bicycle" />
    <trip id="1064_0" depart="19684.00" from="214" to="5" type="car" />
    <trip id="1388_0" depart="20170.00" from="280" to="457" type="car" />
    <trip id="3337_0" depart="21110.00" from="202" to="87" type="car" />
    <trip id="3440_0" depart="21303.00" from="462" to="183" type="car" />
    <trip id="101_0" depart="21772.00" from="269" to="304" type="car" />
    <trip id="3419_0" depart="21774.00" from="445" to="28" type="car" />
    <trip id="3040_0" depart="22006.00" from="146" to="447" type="car" />
    <trip id="1792_0" depart="22321.00" from="374" to="343" type="car" />
    <trip id="2331_0" depart="22373.00" from="218" to="149" type="car" />
    <trip id="2736_0" depart="22528.00" from="180" to="297" type="car" />
    <trip id="238_0" depart="22696.00" from="413" to="618" type="car" />
    <trip id="2023_0" depart="22740.00" from="88" to="583" type="car" />
    <trip id="2195_0" depart="22805.00" from="230" to="365" type="car" />
    <trip id="2614_0" depart="22811.00" from="154" to="202" type="car" />
    <trip id="1446_0" depart="22825.00" from="269" to="272" type="car" />
    <trip id="1406_0" depart="22830.00" from="276" to="512" type="car" />
    <trip id="2997_0" depart="22894.00" from="158" to="583" type="car" />
    <trip id="529_0" depart="22961.00" from="157" to="184" type="car" />
    <trip id="885_0" depart="23058.00" from="625" to="564" type="car" />
    <trip id="2883_0" depart="23197.00" from="287" to="114" type="car" />
    <trip id="332_0" depart="23262.00" from="449" to="217" type="car" />
    <trip id="2603_0" depart="23308.00" from="552" to="194" type="car" />
    <trip id="1222_0" depart="23366.00" from="343" to="548" type="car" />
    <trip id="3430_0" depart="23371.00" from="518" to="544" type="car" />
    <trip id="2593_0" depart="23373.00" from="625" to="389" type="car" />
    <trip id="3371_0" depart="23398.00" from="610" to="471" type="car" />
    <trip id="1830_0" depart="23400.00" from="17" to="286" type="car" />
    <trip id="1184_0" depart="23431.00" from="152" to="524" type="car" />
    <trip id="91_0" depart="23520.00" from="224" to="169" type="car" />
    <trip id="710_0" depart="23592.00" from="64" to="90" type="car" />
    <trip id="1693_0" depart="23720.00" from="505" to="22" type="car" />
    <trip id="2594_0" depart="23761.00" from="594" to="54" type="car" />
    <trip id="146_0" depart="23816.00" from="363" to="407" type="car" />
    <trip id="446_0" depart="23872.00" from="465" to="369" type="car" />
    <trip id="3410_0" depart="23966.00" from="450" to="190" type="car" />
    <trip id="1728_0" depart="23982.00" from="71" to="49" type="car" />
    <trip id="228_0" depart="23989.00" from="46" to="235" type="car" />
    <trip id="2044_0" depart="24053.00" from="603" to="405" type="car" />
    <trip id="179_0" depart="24105.00" from="208" to="48" type="car" />
    <trip id="621_0" depart="24170.00" from="70" to="463" type="car" />
    <trip id="2778_0" depart="24206.00" from="210" to="370" type="car" />
    <trip id="2024_0" depart="24221.00" from="324" to="269" type="car" />
    <trip id="778_0" depart="24295.00" from="204" to="494" type="car" />
    <trip id="355_0" depart="24328.00" from="27" to="14" type="car" />
    <trip id="407_0" depart="24362.00" from="310" to="185" type="car" />
    <trip id="429_0" depart="24392.00" from="376" to="443" type="car" />
    <trip id="3168_0" depart="24409.00" from="6" to="404" type="car" />
    <trip id="786_0" depart="24443.00" from="74" to="306" type="car" />
    <trip id="987_0" depart="24458.00" from="398" to="543" type="car" />
    <trip id="3316_0" depart="24482.00" from="513" to="387" type="car" />
    <trip id="1488_0" depart="24492.00" from="578" to="615" type="car" />
    <trip id="2934_0" depart="24614.00" from="22" to="58" type="car" />
    <trip id="2822_0" depart="24627.00" from="140" to="26" type="car" />
    <trip id="611_0" depart="24710.00" from="458" to="472" type="car" />
    <trip id="89_0" depart="24769.00" from="551" to="449" type="car" />
    <trip id="2243_0" depart="24911.00" from="225" to="412" type="car" />
    <trip id="2161_0" depart="24925.00" from="371" to="326" type="car" />
    <trip id="2897_0" depart="24927.00" from="32" to="383" type="car" />
    <trip id="2580_0" depart="24961.00" from="301" to="119" type="car" />
    <trip id="3361_0" depart="24969.00" from="302" to="63" type="car" />
    <trip id="3184_0" depart="25050.00" from="78" to="424" type="car" />
    <trip id="2013_0" depart="25092.00" from="53" to="13" type="car" />
    <trip id="1761_0" depart="25103.00" from="13" to="511" type="car" />
    <trip id="1172_0" depart="25110.00" from="187" to="200" type="car" />
    <trip id="974_0" depart="25111.00" from="114" to="132" type="car" />
    <trip id="2337_0" depart="25124.00" from="280" to="130" type="car" />
    <trip id="485_0" depart="25127.00" from="7" to="547" type="car" />
    <trip id="220_0" depart="25150.00" from="621" to="475" type="car" />
    <trip id="1412_0" depart="25158.00" from="138" to="174" type="car" />
    <trip id="2166_0" depart="25234.00" from="278" to="46" type="car" />
    <trip id="491_0" depart="25283.00" from="126" to="49" type="car" />
    <trip id="2141_0" depart="25286.00" from="450" to="624" type="car" />
    <trip id="2615_0" depart="25306.00" from="5" to="82" type="car" />
    <trip id="1366_0" depart="25308.00" from="51" to="622" type="car" />
    <trip id="482_0" depart="25328.00" from="130" to="623" type="car" />
    <trip id="2246_0" depart="25330.00" from="105" to="277" type="car" />
    <trip id="1047_0" depart="25366.00" from="10" to="265" type="car" />
    <trip id="2296_0" depart="25366.00" from="69" to="245" type="car" />
    <trip id="2856_0" depart="25369.00" from="2" to="347" type="car" />
    <trip id="1241_0" depart="25403.00" from="184" to="276" type="car" />
    <trip id="155_0" depart="25432.00" from="301" to="79" type="car" />
    <trip id="2480_0" depart="25436.00" from="122" to="363" type="car" />
    <trip id="3306_0" depart="25491.00" from="605" to="621" type="car" />
    <trip id="556_0" depart="25496.00" from="307" to="627" type="car" />
    <trip id="2695_0" depart="25506.00" from="277" to="94" type="car" />
    <trip id="1582_0" depart="25535.00" from="159" to="551" type="car" />
    <trip id="630_0" depart="25550.00" from="58" to="405" type="car" />
    <trip id="1859_0" depart="25562.00" from="52" to="403" type="car" />
    <trip id="3387_0" depart="25576.00" from="299" to="572" type="car" />
    <trip id="2787_0" depart="25601.00" from="178" to="629" type="car" />
    <trip id="2975_0" depart="25619.00" from="113" to="343" type="car" />
    <trip id="1203_0" depart="25620.00" from="301" to="387" type="car" />
    <trip id="365_0" depart="25641.00" from="53" to="32" type="car" />
    <trip id="496_0" depart="25675.00" from="572" to="506" type="car" />
    <trip id="2211_0" depart="25677.00" from="628" to="466" type="car" />
    <trip id="1715_0" depart="25678.00" from="563" to="104" type="car" />
    <trip id="521_0" depart="25689.00" from="493" to="264" type="car" />
    <trip id="471_0" depart="25694.00" from="550" to="135" type="car" />
    <trip id="259_0" depart="25708.00" from="611" to="229" type="car" />
    <trip id="3115_0" depart="25709.00" from="126" to="363" type="car" />
    <trip id="474_0" depart="25718.00" from="87" to="182" type="car" />
    <trip id="1391_0" depart="25741.00" from="80" to="200" type="car" />
    <trip id="2553_0" depart="25760.00" from="127" to="377" type="car" />
    <trip id="1170_0" depart="25774.00" from="19" to="188" type="car" />
    <trip id="1098_0" depart="25789.00" from="594" to="450" type="car" />
    <trip id="947_0" depart="25791.00" from="540" to="126" type="car" />
    <trip id="3458_0" depart="25797.00" from="65" to="461" type="car" />
    <trip id="2989_0" depart="25816.00" from="145" to="79" type="car" />
    <trip id="1635_0" depart="25818.00" from="229" to="616" type="car" />
    <trip id="2420_0" depart="25820.00" from="371" to="462" type="car" />
    <trip id="2372_0" depart="25833.00" from="196" to="565" type="car" />
    <trip id="2396_0" depart="25869.00" from="628" to="140" type="car" />
    <trip id="2509_0" depart="25874.00" from="15" to="98" type="car" />
    <trip id="667_0" depart="25877.00" from="119" to="55" type="car" />
    <trip id="2558_0" depart="25883.00" from="587" to="70" type="car" />
    <trip id="511_0" depart="25887.00" from="364" to="483" type="car" />
    <trip id="340_0" depart="25929.00" from="359" to="11" type="car" />
    <trip id="2086_0" depart="25952.00" from="352" to="388" type="car" />
    <trip id="3062_0" depart="25970.00" from="600" to="241" type="car" />
    <trip id="1573_0" depart="25973.00" from="175" to="430" type="car" />
    <trip id="3178_0" depart="25990.00" from="420" to="562" type="car" />
    <trip id="2498_0" depart="25998.00" from="189" to="562" type="car" />
    <trip id="2741_0" depart="26016.00" from="84" to="460" type="car" />
    <trip id="646_0" depart="26017.00" from="67" to="2" type="car" />
    <trip id="3190_0" depart="26039.00" from="28" to="620" type="car" />
    <trip id="199_0" depart="26058.00" from="16" to="586" type="car" />
    <trip id="2675_0" depart="26078.00" from="242" to="238" type="car" />
    <trip id="2803_0" depart="26079.00" from="213" to="29" type="car" />
    <trip id="1259_0" depart="26081.00" from="56" to="400" type="car" />
    <trip id="2969_0" depart="26092.00" from="94" to="252" type="car" />
    <trip id="2120_0" depart="26099.00" from="368" to="569" type="car" />
    <trip id="1342_0" depart="26111.00" from="583" to="275" type="car" />
    <trip id="3454_0" depart="26121.00" from="93" to="543" type="car" />
    <trip id="807_0" depart="26127.00" from="484" to="394" type="car" />
    <trip id="119_0" depart="26132.00" from="385" to="522" type="car" />
    <trip id="129_0" depart="26141.00" from="22" to="67" type="car" />
    <trip id="268_0" depart="26154.00" from="340" to="621" type="car" />
    <trip id="3411_0" depart="26157.00" from="220" to="173" type="car" />
    <trip id="458_0" depart="26214.00" from="517" to="452" type="car" />
    <trip id="1832_0" depart="26226.00" from="437" to="583" type="car" />
    <trip id="738_0" depart="26277.00" from="129" to="342" type="car" />
    <trip id="894_0" depart="26297.00" from="137" to="154" type="car" />
    <trip id="3450_0" depart="26311.00" from="326" to="396" type="car" />
    <trip id="2000_0" depart="26328.00" from="193" to="111" type="car" />
    <trip id="2772_0" depart="26335.00" from="81" to="340" type="car" />
    <trip id="2479_0" depart="26336.00" from="493" to="438" type="car" />
    <trip id="2807_0" depart="26347.00" from="55" to="359" type="car" />
    <trip id="2749_0" depart="26358.00" from="449" to="271" type="car" />
    <trip id="1315_0" depart="26363.00" from="307" to="272" type="car" />
    <trip id="3396_0" depart="26378.00" from="625" to="499" type="car" />
    <trip id="2880_0" depart="26422.00" from="590" to="143" type="car" />
    <trip id="3020_0" depart="26422.00" from="89" to="17" type="car" />
    <trip id="1196_0" depart="26440.00" from="544" to="129" type="car" />
    <trip id="1881_0" depart="26452.00" from="520" to="534" type="car" />
    <trip id="762_0" depart="26454.00" from="240" to="56" type="car" />
    <trip id="1286_0" depart="26474.00" from="246" to="92" type="car" />
    <trip id="2560_0" depart="26484.00" from="512" to="469" type="car" />
    <trip id="1605_0" depart="26486.00" from="400" to="110" type="car" />
    <trip id="2866_0" depart="26488.00" from="547" to="11" type="car" />
    <trip id="645_0" depart="26511.00" from="330" to="7" type="car" />
    <trip id="2192_0" depart="26525.00" from="16" to="201" type="car" />
    <trip id="986_0" depart="26525.00" from="550" to="222" type="car" />
    <trip id="3031_0" depart="26562.00" from="461" to="291" type="car" />
    <trip id="2522_0" depart="26584.00" from="185" to="18" type="car" />
    <trip id="133_0" depart="26594.00" from="328" to="132" type="car" />
    <trip id="1377_0" depart="26598.00" from="210" to="327" type="car" />
    <trip id="1648_0" depart="26600.00" from="627" to="257" type="car" />
    <trip id="1885_0" depart="26605.00" from="23" to="506" type="car" />
    <trip id="21_0" depart="26622.00" from="161" to="237" type="car" />
    <trip id="1700_0" depart="26627.00" from="441" to="501" type="car" />
    <trip id="36_0" depart="26663.00" from="140" to="373" type="car" />
    <trip id="17_0" depart="26686.00" from="404" to="78" type="car" />
    <trip id="2221_0" depart="26688.00" from="74" to="86" type="car" />
    <trip id="2965_0" depart="26714.00" from="362" to="356" type="car" />
    <trip id="2397_0" depart="26717.00" from="450" to="168" type="car" />
    <trip id="1722_0" depart="26731.00" from="570" to="197" type="car" />
    <trip id="486_0" depart="26732.00" from="195" to="625" type="car" />
    <trip id="1570_0" depart="26736.00" from="470" to="10" type="car" />
    <trip id="2163_0" depart="26736.00" from="160" to="287" type="car" />
    <trip id="331_0" depart="26738.00" from="212" to="568" type="car" />
    <trip id="2319_0" depart="26739.00" from="609" to="411" type="car" />
    <trip id="889_0" depart="26750.00" from="510" to="93" type="car" />
    <trip id="1825_0" depart="26754.00" from="420" to="470" type="car" />
    <trip id="188_0" depart="26765.00" from="189" to="373" type="car" />
    <trip id="1625_0" depart="26766.00" from="346" to="515" type="car" />
    <trip id="3196_0" depart="26769.00" from="305" to="347" type="car" />
    <trip id="494_0" depart="26773.00" from="421" to="179" type="car" />
    <trip id="920_0" depart="26786.00" from="395" to="482" type="car" />
    <trip id="2413_0" depart="26797.00" from="324" to="479" type="car" />
    <trip id="2193_0" depart="26802.00" from="247" to="278" type="car" />
    <trip id="2269_0" depart="26816.00" from="459" to="220" type="car" />
    <trip id="2299_0" depart="26831.00" from="199" to="449" type="car" />
    <trip id="298_0" depart="26836.00" from="614" to="125" type="car" />
    <trip id="1516_0" depart="26837.00" from="539" to="545" type="car" />
    <trip id="3147_0" depart="26853.00" from="287" to="286" type="car" />
    <trip id="3364_0" depart="26855.00" from="178" to="343" type="car" />
    <trip id="1658_0" depart="26856.00" from="60" to="200" type="car" />
    <trip id="3191_0" depart="26861.00" from="542" to="125" type="car" />
    <trip id="1409_0" depart="26863.00" from="595" to="279" type="car" />
    <trip id="1020_0" depart="26869.00" from="6" to="49" type="car" />
    <trip id="3086_0" depart="26875.00" from="294" to="116" type="car" />
    <trip id="617_0" depart="26890.00" from="87" to="447" type="car" />
    <trip id="1964_0" depart="26912.00" from="116" to="462" type="car" />
    <trip id="2112_0" depart="26913.00" from="260" to="19" type="car" />
    <trip id="94_0" depart="26922.00" from="352" to="169" type="car" />
    <trip id="803_0" depart="26930.00" from="431" to="588" type="car" />
    <trip id="2589_0" depart="26941.00" from="359" to="603" type="car" />
    <trip id="2485_0" depart="26948.00" from="530" to="518" type="car" />
    <trip id="2972_0" depart="26950.00" from="19" to="584" type="car" />
    <trip id="1054_0" depart="26957.00" from="369" to="16" type="car" />
    <trip id="1616_0" depart="26959.00" from="235" to="390" type="car" />
    <trip id="3107_0" depart="26964.00" from="356" to="274" type="car" />
    <trip id="2753_0" depart="26965.00" from="89" to="240" type="car" />
    <trip id="1806_0" depart="26966.00" from="528" to="539" type="car" />
    <trip id="2732_0" depart="26967.00" from="571" to="519" type="car" />
    <trip id="2164_0" depart="26977.00" from="423" to="584" type="car" />
    <trip id="1783_0" depart="26985.00" from="19" to="159" type="car" />
    <trip id="2227_0" depart="26985.00" from="226" to="243" type="car" />
    <trip id="1642_0" depart="26987.00" from="616" to="530" type="car" />
    <trip id="3049_0" depart="26989.00" from="167" to="312" type="car" />
    <trip id="648_0" depart="27005.00" from="244" to="582" type="car" />
    <trip id="3045_0" depart="27006.00" from="59" to="235" type="car" />
    <trip id="2019_0" depart="27013.00" from="520" to="149" type="car" />
    <trip id="2242_0" depart="27027.00" from="384" to="294" type="car" />
    <trip id="2344_0" depart="27038.00" from="238" to="121" type="car" />
    <trip id="3015_0" depart="27040.00" from="236" to="590" type="car" />
    <trip id="279_0" depart="27058.00" from="397" to="549" type="car" />
    <trip id="3014_0" depart="27065.00" from="287" to="433" type="car" />
    <trip id="2985_0" depart="27066.00" from="509" to="423" type="car" />
    <trip id="1041_0" depart="27071.00" from="302" to="438" type="car" />
    <trip id="1671_0" depart="27079.00" from="477" to="385" type="car" />
    <trip id="2336_0" depart="27083.00" from="10" to="236" type="car" />
    <trip id="186_0" depart="27085.00" from="626" to="132" type="car" />
    <trip id="2210_0" depart="27088.00" from="193" to="552" type="car" />
    <trip id="2643_0" depart="27093.00" from="176" to="566" type="car" />
    <trip id="1490_0" depart="27095.00" from="129" to="611" type="car" />
    <trip id="2015_0" depart="27100.00" from="65" to="336" type="car" />
    <trip id="1556_0" depart="27105.00" from="113" to="80" type="car" />
    <trip id="582_0" depart="27106.00" from="494" to="70" type="car" />
    <trip id="2433_0" depart="27125.00" from="48" to="448" type="car" />
    <trip id="835_0" depart="27127.00" from="493" to="300" type="car" />
    <trip id="1985_0" depart="27129.00" from="2" to="78" type="car" />
    <trip id="2978_0" depart="27143.00" from="371" to="496" type="car" />
    <trip id="2730_0" depart="27148.00" from="20" to="49" type="car" />
    <trip id="359_0" depart="27162.00" from="339" to="552" type="car" />
    <trip id="1601_0" depart="27164.00" from="136" to="289" type="car" />
    <trip id="2437_0" depart="27165.00" from="526" to="492" type="car" />
    <trip id="1309_0" depart="27178.00" from="452" to="427" type="car" />
    <trip id="872_0" depart="27198.00" from="265" to="549" type="car" />
    <trip id="1143_0" depart="27218.00" from="328" to="59" type="car" />
    <trip id="2607_0" depart="27221.00" from="5" to="7" type="car" />
    <trip id="2496_0" depart="27222.00" from="574" to="409" type="car" />
    <trip id="767_0" depart="27244.00" from="536" to="390" type="car" />
    <trip id="380_0" depart="27245.00" from="398" to="184" type="car" />
    <trip id="3233_0" depart="27250.00" from="201" to="327" type="car" />
    <trip id="2230_0" depart="27274.00" from="615" to="461" type="car" />
    <trip id="3343_0" depart="27287.00" from="308" to="524" type="car" />
    <trip id="654_0" depart="27287.00" from="253" to="285" type="car" />
    <trip id="2276_0" depart="27298.00" from="255" to="162" type="car" />
    <trip id="1938_0" depart="27303.00" from="51" to="426" type="car" />
    <trip id="2605_0" depart="27320.00" from="121" to="376" type="car" />
    <trip id="984_0" depart="27320.00" from="607" to="494" type="car" />
    <trip id="1474_0" depart="27322.00" from="500" to="435" type="car" />
    <trip id="769_0" depart="27323.00" from="576" to="90" type="car" />
    <trip id="3494_0" depart="27333.00" from="213" to="8" type="car" />
    <trip id="1506_0" depart="27335.00" from="328" to="278" type="car" />
    <trip id="1347_0" depart="27349.00" from="540" to="124" type="car" />
    <trip id="952_0" depart="27372.00" from="235" to="546" type="car" />
    <trip id="1879_0" depart="27373.00" from="576" to="405" type="car" />
    <trip id="647_0" depart="27407.00" from="450" to="126" type="car" />
    <trip id="1984_0" depart="27421.00" from="427" to="90" type="car" />
    <trip id="3130_0" depart="27440.00" from="223" to="526" type="car" />
    <trip id="1659_0" depart="27441.00" from="442" to="401" type="car" />
    <trip id="2216_0" depart="27447.00" from="522" to="359" type="car" />
    <trip id="3093_0" depart="27453.00" from="201" to="474" type="car" />
    <trip id="1167_0" depart="27459.00" from="245" to="292" type="car" />
    <trip id="541_0" depart="27466.00" from="457" to="78" type="car" />
    <trip id="1547_0" depart="27470.00" from="85" to="88" type="car" />
    <trip id="1764_0" depart="27471.00" from="506" to="130" type="car" />
    <trip id="970_0" depart="27487.00" from="191" to="266" type="car" />
    <trip id="1875_0" depart="27490.00" from="397" to="455" type="car" />
    <trip id="336_0" depart="27492.00" from="175" to="107" type="car" />
    <trip id="2435_0" depart="27494.00" from="612" to="188" type="car" />
    <trip id="2920_0" depart="27498.00" from="241" to="283" type="car" />
    <trip id="167_0" depart="27507.00" from="23" to="569" type="car" />
    <trip id="1558_0" depart="27513.00" from="619" to="285" type="car" />
    <trip id="2291_0" depart="27536.00" from="621" to="465" type="car" />
    <trip id="2395_0" depart="27541.00" from="381" to="230" type="car" />
    <trip id="123_0" depart="27545.00" from="206" to="89" type="car" />
    <trip id="1539_0" depart="27551.00" from="51" to="83" type="car" />
    <trip id="1066_0" depart="27553.00" from="483" to="32" type="car" />
    <trip id="3249_0" depart="27558.00" from="460" to="443" type="car" />
    <trip id="3174_0" depart="27564.00" from="119" to="350" type="car" />
    <trip id="871_0" depart="27570.00" from="296" to="267" type="car" />
    <trip id="2368_0" depart="27571.00" from="276" to="235" type="car" />
    <trip id="2813_0" depart="27577.00" from="277" to="147" type="car" />
    <trip id="2123_0" depart="27586.00" from="216" to="350" type="car" />
    <trip id="2502_0" depart="27608.00" from="330" to="26" type="car" />
    <trip id="868_0" depart="27611.00" from="607" to="579" type="car" />
    <trip id="3413_0" depart="27630.00" from="504" to="434" type="car" />
    <trip id="2266_0" depart="27633.00" from="428" to="570" type="car" />
    <trip id="2196_0" depart="27651.00" from="405" to="27" type="car" />
    <trip id="2515_0" depart="27654.00" from="238" to="370" type="car" />
    <trip id="2171_0" depart="27659.00" from="193" to="399" type="car" />
    <trip id="1039_0" depart="27669.00" from="364" to="259" type="car" />
    <trip id="1672_0" depart="27669.00" from="519" to="567" type="car" />
    <trip id="2889_0" depart="27680.00" from="627" to="73" type="car" />
    <trip id="1123_0" depart="27681.00" from="431" to="469" type="car" />
    <trip id="42_0" depart="27699.00" from="256" to="218" type="car" />
    <trip id="1695_0" depart="27713.00" from="448" to="412" type="car" />
    <trip id="1708_0" depart="27716.00" from="495" to="6" type="car" />
    <trip id="732_0" depart="27726.00" from="244" to="374" type="car" />
    <trip id="3008_0" depart="27727.00" from="390" to="180" type="car" />
    <trip id="918_0" depart="27732.00" from="83" to="112" type="car" />
    <trip id="173_0" depart="27733.00" from="13" to="438" type="car" />
    <trip id="1134_0" depart="27736.00" from="106" to="306" type="car" />
    <trip id="2979_0" depart="27736.00" from="455" to="180" type="car" />
    <trip id="2810_0" depart="27749.00" from="424" to="174" type="car" />
    <trip id="2431_0" depart="27759.00" from="471" to="107" type="car" />
    <trip id="2913_0" depart="27760.00" from="265" to="4" type="car" />
    <trip id="847_0" depart="27760.00" from="492" to="29" type="car" />
    <trip id="1444_0" depart="27762.00" from="466" to="360" type="car" />
    <trip id="2626_0" depart="27776.00" from="246" to="581" type="car" />
    <trip id="729_0" depart="27777.00" from="614" to="114" type="car" />
    <trip id="324_0" depart="27778.00" from="357" to="521" type="car" />
    <trip id="266_0" depart="27780.00" from="30" to="511" type="car" />
    <trip id="3320_0" depart="27797.00" from="110" to="531" type="car" />
    <trip id="2858_0" depart="27798.00" from="134" to="442" type="car" />
    <trip id="627_0" depart="27811.00" from="403" to="400" type="car" />
    <trip id="2168_0" depart="27828.00" from="375" to="429" type="car" />
    <trip id="774_0" depart="27846.00" from="549" to="226" type="car" />
    <trip id="1998_0" depart="27857.00" from="484" to="124" type="car" />
    <trip id="1496_0" depart="27858.00" from="271" to="347" type="car" />
    <trip id="2158_0" depart="27858.00" from="469" to="57" type="car" />
    <trip id="2513_0" depart="27859.00" from="511" to="575" type="car" />
    <trip id="3487_0" depart="27870.00" from="491" to="459" type="car" />
    <trip id="1947_0" depart="27887.00" from="449" to="266" type="car" />
    <trip id="399_0" depart="27888.00" from="242" to="195" type="car" />
    <trip id="2446_0" depart="27889.00" from="570" to="260" type="car" />
    <trip id="598_0" depart="27890.00" from="513" to="62" type="car" />
    <trip id="2656_0" depart="27897.00" from="628" to="27" type="car" />
    <trip id="632_0" depart="27903.00" from="285" to="147" type="car" />
    <trip id="942_0" depart="27910.00" from="429" to="59" type="car" />
    <trip id="2918_0" depart="27930.00" from="297" to="254" type="car" />
    <trip id="2144_0" depart="27933.00" from="272" to="50" type="car" />
    <trip id="1267_0" depart="27938.00" from="549" to="155" type="car" />
    <trip id="1732_0" depart="27941.00" from="15" to="601" type="car" />
    <trip id="209_0" depart="27959.00" from="216" to="456" type="car" />
    <trip id="3143_0" depart="27962.00" from="256" to="249" type="car" />
    <trip id="2418_0" depart="27965.00" from="309" to="504" type="car" />
    <trip id="3334_0" depart="27967.00" from="295" to="514" type="car" />
    <trip id="1079_0" depart="27970.00" from="55" to="122" type="car" />
    <trip id="1253_0" depart="27977.00" from="446" to="550" type="car" />
    <trip id="2353_0" depart="27978.00" from="7" to="80" type="car" />
    <trip id="2234_0" depart="27980.00" from="11" to="289" type="car" />
    <trip id="3079_0" depart="27981.00" from="134" to="109" type="car" />
    <trip id="1563_0" depart="27983.00" from="243" to="388" type="car" />
    <trip id="248_0" depart="27987.00" from="254" to="372" type="car" />
    <trip id="344_0" depart="27989.00" from="424" to="21" type="car" />
    <trip id="687_0" depart="28004.00" from="373" to="346" type="car" />
    <trip id="1936_0" depart="28007.00" from="18" to="460" type="car" />
    <trip id="3173_0" depart="28018.00" from="219" to="23" type="car" />
    <trip id="1905_0" depart="28023.00" from="250" to="47" type="car" />
    <trip id="1251_0" depart="28027.00" from="94" to="72" type="car" />
    <trip id="2604_0" depart="28030.00" from="23" to="94" type="car" />
    <trip id="1791_0" depart="28033.00" from="196" to="190" type="car" />
    <trip id="468_0" depart="28034.00" from="423" to="394" type="car" />
    <trip id="2349_0" depart="28038.00" from="483" to="23" type="car" />
    <trip id="566_0" depart="28039.00" from="108" to="169" type="car" />
    <trip id="2671_0" depart="28040.00" from="570" to="48" type="car" />
    <trip id="1356_0" depart="28044.00" from="226" to="162" type="car" />
    <trip id="592_0" depart="28048.00" from="182" to="70" type="car" />
    <trip id="2893_0" depart="28057.00" from="229" to="282" type="car" />
    <trip id="1690_0" depart="28058.00" from="381" to="446" type="car" />
    <trip id="1795_0" depart="28063.00" from="75" to="284" type="car" />
    <trip id="1367_0" depart="28073.00" from="266" to="587" type="car" />
    <trip id="2116_0" depart="28076.00" from="133" to="25" type="car" />
    <trip id="1209_0" depart="28089.00" from="72" to="194" type="car" />
    <trip id="1449_0" depart="28098.00" from="491" to="123" type="car" />
    <trip id="495_0" depart="28099.00" from="626" to="106" type="car" />
    <trip id="1192_0" depart="28101.00" from="342" to="8" type="car" />
    <trip id="1864_0" depart="28102.00" from="595" to="339" type="car" />
    <trip id="2376_0" depart="28102.00" from="572" to="302" type="car" />
    <trip id="1122_0" depart="28107.00" from="589" to="110" type="car" />
    <trip id="2703_0" depart="28115.00" from="194" to="150" type="car" />
    <trip id="1071_0" depart="28123.00" from="168" to="608" type="car" />
    <trip id="689_0" depart="28125.00" from="77" to="159" type="car" />
    <trip id="1451_0" depart="28126.00" from="229" to="532" type="car" />
    <trip id="1422_0" depart="28138.00" from="485" to="397" type="car" />
    <trip id="92_0" depart="28138.00" from="453" to="276" type="car" />
    <trip id="223_0" depart="28139.00" from="616" to="197" type="car" />
    <trip id="2477_0" depart="28153.00" from="331" to="627" type="car" />
    <trip id="2971_0" depart="28157.00" from="326" to="257" type="car" />
    <trip id="2950_0" depart="28162.00" from="452" to="254" type="car" />
    <trip id="626_0" depart="28162.00" from="151" to="427" type="car" />
    <trip id="1532_0" depart="28170.00" from="19" to="336" type="car" />
    <trip id="251_0" depart="28199.00" from="185" to="377" type="car" />
    <trip id="77_0" depart="28202.00" from="50" to="382" type="car" />
    <trip id="2126_0" depart="28203.00" from="355" to="247" type="car" />
    <trip id="3078_0" depart="28204.00" from="256" to="326" type="car" />
    <trip id="2987_0" depart="28205.00" from="307" to="524" type="car" />
    <trip id="2225_0" depart="28222.00" from="280" to="64" type="car" />
    <trip id="2884_0" depart="28229.00" from="260" to="292" type="car" />
    <trip id="1522_0" depart="28234.00" from="217" to="102" type="car" />
    <trip id="200_0" depart="28234.00" from="32" to="465" type="car" />
    <trip id="534_0" depart="28237.00" from="128" to="454" type="car" />