<?xml version="1.0" encoding="UTF-8"?>

<!-- generated on 2023-02-20 09:19:01 by Eclipse SUMO duarouter Version 1.16.0
<configuration xmlns:xsi="http://www.w3.org/2001/XMLSchema-instance" xsi:noNamespaceSchemaLocation="http://sumo.dlr.de/xsd/duarouterConfiguration.xsd">

    <input>
        <net-file value="../MASA.net.xml"/>
        <route-files value="plans5000.rou.xml"/>
    </input>

    <output>
        <output-file value="prova.rou.xml"/>
    </output>

</configuration>
-->

<routes xmlns:xsi="http://www.w3.org/2001/XMLSchema-instance" xsi:noNamespaceSchemaLocation="http://sumo.dlr.de/xsd/routes_file.xsd">
    <vType id="car" vClass="passenger"/>
    <route id ="3" edges="108 203 405 403 401 312 76 78 445 170 168 167 169"/>
    <vehicle id="667_0" type="car" depart="20094.00">
        <route edges="119 121 346 67 65 63 61 59 57 55"/>
    </vehicle>
    <vehicle id="1763_0" type="car" depart="20214.00">
        <route edges="409 410 240 241 242 177 178 179 481 482 483 32 30 28 26 420 421 422"/>
    </vehicle>
    <vehicle id="28_0" type="car" depart="20938.00">
        <route edges="272 273 274 249 250 251 252 253 254 255 576 577 578 590 592 594 596 598 509 511 513 515 517 519 521 523 525 527 529 600 602 204 206 208 210 212 214 216 218 220 222 224 226 228 230 232 234 236 238 239 237 235 233 231 229 227 225 223 221 219 217 215 213 211"/>
    </vehicle>
    <vehicle id="2423_0" type="car" depart="21456.00">
        <route edges="451 71 69 110 109"/>
    </vehicle>
    <vehicle id="1099_0" type="car" depart="22494.00">
        <route edges="251 252 253 254 255 256 257 258 259 260 261 262 263 264 265 266 267 268 269 270 307 308 309 310 311 312 296 297 298 299 300 301 302 123"/>
    </vehicle>
    <vehicle id="792_0" type="car" depart="22814.00">
        <route edges="573 566 567 568 265 266 267 268 269 270 271 272 273 274 249 250 604 605 606 607 608 357 355 353 351 349 347 345 343 341 339 240 241 242 177 178 179 180 181 182 183 184 185 186 187 387 388 389 390 413 579 580 581 582 583 584 586 588"/>
    </vehicle>
    <vehicle id="1238_0" type="car" depart="23059.00">
        <route edges="350 352 354 356 609 610 611 612 255 576 577 578 590 592 594 596 598 509 511 513 515 517 519 521 523 525 527 529 600 602 204 206 208 210 212 214 216 218 220 222 224 226 228 230 232 234 236"/>
    </vehicle>
    <vehicle id="1337_0" type="car" depart="23166.00">
        <route edges="373 371 369 367 365 363 361 359 358 360 362 364 366 368 370 372 374 376 378 380 382 100 98 414 569 570 571 287 288 289 290 291 292 293 294 295 408 409 410 338 340 342 344 346 67 65 63 61 59 57 407 201 562 564 495"/>
    </vehicle>
    <vehicle id="1996_0" type="car" depart="23168.00">
        <route edges="431 428 429 430 27 29 31 442 443 185 186 187 303 304 305 306 287 288 289 290 291 292 293 294 295 408 409 410 338 340 342 344 346 67 65 63 62 64 66"/>
    </vehicle>
    <vehicle id="1785_0" type="car" depart="23444.00">
        <route edges="396 398 400 402 404 406 55 53 51 49 47 10 8 6 5"/>
    </vehicle>
    <vehicle id="2032_0" type="car" depart="23603.00">
        <route edges="528 526 524 522 520 518 516 514 512 510 599 597 595 593 591 472 473 474 260 261 262 263 264 265 266 267 268 269 270 271 272 273 274 249 250 604 605 606 607 608 357 355 353 351"/>
    </vehicle>
    <vehicle id="1568_0" type="car" depart="23658.00">
        <route edges="196 197 249 250 251 252 253 254 255 576 577 578 590 592 594 596 598 509 511 513 515 517 519 521 523 525 527 529 600 602 204 206 208 210 212 214 216 218 220 222 224 226 228 230 232 234 236 238"/>
    </vehicle>
    <vehicle id="1399_0" type="car" depart="23801.00">
        <route edges="49 47 10 8 6 4 2 17 19 21 23 25 27 29 31 442 443 185 186 187 387 388 389 390 413 579 580 581 582 583 584 586 588 452 454 456 458 460 462 464 466 468 470 471 469 467 465 463 461 459 457"/>
    </vehicle>
    <vehicle id="2098_0" type="car" depart="23888.00">
        <route edges="7 9 46 48 50 52 54 56 58 60 62 64 66 348 350 352 354 356 609 610 611 612 255 256"/>
    </vehicle>
    <vehicle id="1588_0" type="car" depart="23923.00">
        <route edges="424 425 426 427 428 429 430 27 29 31 442 443 185 186 187 387 388 389 390 413 579 580 581 582 583 584 586 491 493 152 154 155 156 157 158 159"/>
    </vehicle>
    <vehicle id="1465_0" type="car" depart="24008.00">
        <route edges="17 19 21 22 20 18 1 3 5 7 9 46 48 50 52 54 407 405 403 401 312 76"/>
    </vehicle>
    <vehicle id="1769_0" type="car" depart="24050.00">
        <route edges="159 160 161 162 163 164 165 166 153 494 492 587 585 627 629 613 615 617 619 621 623 625 530 528 526 524 522"/>
    </vehicle>
    <vehicle id="1343_0" type="car" depart="24086.00">
        <route edges="400 192 109"/>
    </vehicle>
    <vehicle id="2119_0" type="car" depart="24127.00">
        <route edges="527 529 626 624 622 620 618 616 614 383 381 379 377 375 373 371"/>
    </vehicle>
    <vehicle id="2429_0" type="car" depart="24187.00">
        <route edges="13 14 15 16 270 271 272 273 274 249 250 604 605 606 607 608 357 355 353 351 349 347 345 343 341 339 240 241 242 177 178 179 180 181 182 183 184 185 186 187 387 388 323 324"/>
    </vehicle>
    <vehicle id="1488_0" type="car" depart="24293.00">
        <route edges="578 590 592 594 596 598 509 511 513 515 517 519 521 523 525 527 529 626 624 622 620 618 616 614 613 615"/>
    </vehicle>
    <vehicle id="566_0" type="car" depart="24331.00">
        <route edges="108 203 405 403 401 312 76 78 445 170 168 167 169"/>
    </vehicle>
    <vehicle id="1553_0" type="car" depart="24358.00">
        <route edges="286 284 282 280 278 276 13 14 15 16 270 271 272 273 274 249 250 604 605 606 607 608 357 355 353 351 349 67 65 63 62"/>
    </vehicle>
    <vehicle id="2388_0" type="car" depart="24466.00">
        <route edges="578 472 473 474 260 261 262 263 264 265 484 485 275 277 279 451 449 447 80 82 84 86 88"/>
    </vehicle>
    <vehicle id="1537_0" type="car" depart="24489.00">
        <route edges="217 215 213 211 209 207 205 603 601 530 528 526 524 522 520 518 516 514 512 510 599 597 595 593 591 472 473 474 260 261 262 263 264 265 266 267"/>
    </vehicle>
    <vehicle id="487_0" type="car" depart="24560.00">
        <route edges="306 287 288 289 290 291 292 293 294 295 555 556 557 177 178 179 180 181 182 183 184 185 186 187 387 388 323 423 424 425"/>
    </vehicle>
    <vehicle id="220_0" type="car" depart="24606.00">
        <route edges="621 623 625 530 528 526 524 522 520 518 516 514 512 510 599 597 595 593 591 472 473 474 260 261 262 263 264 265 266 267 268 269 270 307 308 309 310 110 193 475"/>
    </vehicle>
    <vehicle id="2335_0" type="car" depart="24613.00">
        <route edges="173 174 589 587 585 627 629 100 98 414 569 570 571 287 288 289 290 291 292 293 294 295 408 409 410 338 340 342 344 346 348 350 352 354 356 609 610 611 612 255 256 257 258 259 260 188 189 190 572 574 575"/>
    </vehicle>
    <vehicle id="923_0" type="car" depart="24626.00">
        <route edges="358 360 362 364 366 368 370 372 374 376 378 380 382 100 98 414 569 570 571 287 288 289 290 291 292 293 294 295 555 556 557 177 178 179 481 482 483 32 30 28"/>
    </vehicle>
    <vehicle id="2030_0" type="car" depart="24776.00">
        <route edges="520 518 516 514"/>
    </vehicle>
    <vehicle id="1163_0" type="car" depart="24889.00">
        <route edges="14 15 16 270 271 272 273 274 249 250 604 605 606 607 608 357 355 353 351 349 347 345 343 341 339 240 241 242 177 178 179 481 482 483 32 30 28 26 24 22 20 18 1 3 5 7"/>
    </vehicle>
    <vehicle id="665_0" type="car" depart="24893.00">
        <route edges="610 611 612 255 256 257 258 259 260 261 262 263 264 265 266 267 268 269 270 271 272 273 274 249 250 604 605 606 607 608 357 355 353 351 349 347 345 343 341 339 240 241 242 177 178 179 481 482 483 32 30 28 26 24 22 20 18 1 3 5"/>
    </vehicle>
    <vehicle id="2419_0" type="car" depart="24958.00">
        <route edges="567 568 265 484 485 13 14 15"/>
    </vehicle>
    <vehicle id="1694_0" type="car" depart="24982.00">
        <route edges="162 163 164 165 166 153 494 492 587 585 627 629 100 98 414 569 570 571 287 288 289 290 291 292 293 294 295 408 409 410 338 340 342 344 346 67 65 63 61 59 57 407 201 562 564 191"/>
    </vehicle>
    <vehicle id="1028_0" type="car" depart="25046.00">
        <route edges="512 510 509 511 513 515 517 519 521 523 525 527 529 600 602 204 206 208 210 212 214 216 218 220 222"/>
    </vehicle>
    <vehicle id="2079_0" type="car" depart="25046.00">
        <route edges="533 535 537 539 541 543 545 547 549 111 113 115 117 119 121 345 343 341 339 240 241 242 177 178 179 180 181 182 183 184 185 186 187 303 304 305 306 287 288 384 432 434 436 438 440 621"/>
    </vehicle>
    <vehicle id="2073_0" type="car" depart="25081.00">
        <route edges="414 413 579 580 581 582 583 584 586 588 452 454 456 458 460 462 464"/>
    </vehicle>
    <vehicle id="572_0" type="car" depart="25099.00">
        <route edges="105 107 60 62 64 66 347 122 120 118 116 114 112 550 548 546 544 542 540 538 536 534 532"/>
    </vehicle>
    <vehicle id="855_0" type="car" depart="25119.00">
        <route edges="584 586 587 585 627 629 100 98 414 569 570 571 287 288 289 290 291 292 293 294 295 408 409 410 338 340 342 344 346 348 350 352 354 356 609 610 611 612 255 256 257 258 259 260 261 262 263 264 265 266 267 268 269 270 271 272 273 274 249 250 251"/>
    </vehicle>
    <vehicle id="1233_0" type="car" depart="25163.00">
        <route edges="368 370 372 374 376 378 380 382 630 628 584 586 588 173"/>
    </vehicle>
    <vehicle id="715_0" type="car" depart="25189.00">
        <route edges="72 74 75 73 450 280 278 276 13 14 15 16 270 271 272 273 274 249 250 604 605 606 607 608 357 355 353 351 349 347 345 343 341 339 240 241 242 177 178 179 180 181 182 183 184 185 186 187 387 388 323 325 327 329 431 428 429 430"/>
    </vehicle>
    <vehicle id="1522_0" type="car" depart="25194.00">
        <route edges="217 215 213 211 209 207 205 603 601 626 624 622 441 439 437 435 433 385 291 292 293 294 295 555 556 557 177 178 179 481 482 483 32 30 248 246 244 532 102"/>
    </vehicle>
    <vehicle id="1222_0" type="car" depart="25223.00">
        <route edges="343 341 339 338 340 342 344 122 120 118 116 114 112 550 548"/>
    </vehicle>
    <vehicle id="411_0" type="car" depart="25255.00">
        <route edges="446 448 450 280 278 276 13 14 15 16 270 271 272 273 274 249 250 604 605 606 607 608 357 355 353 351 349 347 345 343 341 339 240 241 242 177 178 179 180 181 182 183 184 185 186 187 387 388 389 390 413 97 99 613"/>
    </vehicle>
    <vehicle id="2283_0" type="car" depart="25287.00">
        <route edges="332 333 334 335 336 337 310 68 70 72"/>
    </vehicle>
    <vehicle id="297_0" type="car" depart="25303.00">
        <route edges="119 121 345 343 341 339 240 241 242 177 178 179 180 181 182 183 184 185 186 187 387 388 389 390 413 97 99 630 628 627 629"/>
    </vehicle>
    <vehicle id="996_0" type="car" depart="25323.00">
        <route edges="284 282 280 278 276 13 14 15 16 270 271 272 273 274 249 250 604 605 606 607 608 357 355 353 351 349 347 345 343 341 339 240 241 242 177 178 179 180 181 182 183 184 185 186 187 387 388 389 390 413 579 580 581 582 583 584 586 588 452 454 456 458 460 462 464 466 468 470"/>
    </vehicle>
    <vehicle id="2418_0" type="car" depart="25343.00">
        <route edges="309 310 110 193 194 195 196 197 249 250 604 605 606 607 608 357 355 353 351 349 347 345 343 341 339 240 241 242 177 178 179 180 181 182 183 184 185 186 187 387 388 389 390 413 579 580 581 582 583 584 586 588 173 175 506 504"/>
    </vehicle>
    <vehicle id="25_0" type="car" depart="25367.00">
        <route edges="279 280 278 276 13 14 15 16 270 271 272 273 274 249 250 251 252 253 254 255 576 577 578 590 592 594 596 598 509 511 513 515 517 519 521 523 525 527 529 626 624 622 441 439 437 435"/>
    </vehicle>
    <vehicle id="991_0" type="car" depart="25380.00">
        <route edges="465 463 461 459 457 455 453 589 587 585 627 629 613 615 617 619 621 623 625 530 528 526"/>
    </vehicle>
    <vehicle id="2226_0" type="car" depart="25388.00">
        <route edges="227 225 223 221 219 217 215 213 211 209 207 205 603 601 530 528 526 524 522 520 518 516 514 512 510 599 597 595 593 591 472 473 474 260 261 262 263 264 265 266 267 268 269 270 271 272 273 274 249 250 251 252 253 254 255 256 257 258"/>
    </vehicle>
    <vehicle id="206_0" type="car" depart="25397.00">
        <route edges="30 29 31 442 443 185 186 187 303 304 305 306 287 288 289 290 291 292 293 294 295 408 409 410 338 340 342 344 346 67 65 63 480 478 476 475"/>
    </vehicle>
    <vehicle id="2129_0" type="car" depart="25399.00">
        <route edges="437 435 433 385 291 292 293 294 295 555 556 557 177 178 179 180 181 182 183 184 185 186 187 387 388 389 390 413 579 580 581 582 583"/>
    </vehicle>
    <vehicle id="1533_0" type="car" depart="25412.00">
        <route edges="170 168 167 169 444 446 448 450 280 278 276 13 14 15 16 270 271 272 273 274 249 250 604 605 606 607 608 357 355 353 351 349 347 345 343 341 339 240 241 242 177 178 179 180 181 182 183 184 185 186 187 387 388 389 390 413 97 99 383 381 379 377 375 373 371 369 367 365 363 361 359"/>
    </vehicle>
    <vehicle id="367_0" type="car" depart="25430.00">
        <route edges="440 620 618 497 498 499 500 414 569"/>
    </vehicle>
    <vehicle id="1909_0" type="car" depart="25506.00">
        <route edges="225 223 221 219 217 215 213 211 209 207 205 603 601 626 624 622 441 439 437 435 433 385 291 292 293 294 295 555 556 557 177 178 179 481 482 483"/>
    </vehicle>
    <vehicle id="285_0" type="car" depart="25526.00">
        <route edges="203 202 107 60 62 64 66 347 345 343 341 339 240 241 242 177 178 179 180 181 182 183 184 185 186 187 387 388 389 390 413 579 580 581 582 583 584 586 491 493 152 154 155"/>
    </vehicle>
    <vehicle id="250_0" type="car" depart="25534.00">
        <route edges="345 343 341 339 338 340 342 344 122 120 118 116 114 112 550 548 546 544 542 540 538"/>
    </vehicle>
    <vehicle id="1860_0" type="car" depart="25548.00">
        <route edges="470 471 469 467 465 463 461 459 457 455 453 589 587 585 627 629 100 98 414 569 570 571 287 288 289 290 291 292 293 294 295 408 409 410 338 340 342 344 346 67 65 63 480 478 476"/>
    </vehicle>
    <vehicle id="2144_0" type="car" depart="25567.00">
        <route edges="272 273 274 249 250 604 605 606 607 608 357 355 353 351 349 67 65 63 61 59 57 55 53 51 49 47 46 48 50"/>
    </vehicle>
    <vehicle id="1001_0" type="car" depart="25579.00">
        <route edges="159 160 161 162 163 164 165 166 153 494 492 587 585 627 629 613 615 497 498"/>
    </vehicle>
    <vehicle id="2289_0" type="car" depart="25626.00">
        <route edges="450 451 71 69 311 400 192"/>
    </vehicle>
    <vehicle id="854_0" type="car" depart="25628.00">
        <route edges="177 178 179 180 181 182 183 184 185 186 187 303 304 305 306 287 288 289 290 291 292 293 294 295 408 409 410 338 340 342 344 346 348 350 352 354 356 609 610 611 612 255 256 257 258 259 260"/>
    </vehicle>
    <vehicle id="1285_0" type="car" depart="25629.00">
        <route edges="327 329 431 428 429 430 27 29 31 442 443 185 186 187 303 304 305 306 287 288 289 290 291 292 293 294 295 408 409 410 338 340 342 344"/>
    </vehicle>
    <vehicle id="568_0" type="car" depart="25657.00">
        <route edges="565 563 562 564 191 192 193 194 195 196 197 249 250 251 252 253 254 255 576 577 578 590 592 594 596 598 509 511 513 515 517 519 521 523 525 527 529 600 602 204 206 208 210 212 214 216 218 220 222 224 226 228 230 232 234 236 238"/>
    </vehicle>
    <vehicle id="2338_0" type="car" depart="25670.00">
        <route edges="341 339 338 340 342 344 122 120 118 116 114 112 550 548 546 544 542 540 538 536 535 537 539 541 543 545 547 549 111 113 115 117"/>
    </vehicle>
    <vehicle id="2135_0" type="car" depart="25705.00">
        <route edges="309 310 110 193 194 195 196 197 249 250 251 252 253 254 255 576 577 578 590 592 594 596 598 599 597 595"/>
    </vehicle>
    <vehicle id="2223_0" type="car" depart="25708.00">
        <route edges="504 502 23 25 27 29 31 442 443 185 186 187 303 304 305 306 287 288 289 290 291 292 293 294 295 408 409 410 338 340 342 344 346 348 350 352 354 356 609 610 611 612 255 256 257 258 259 260 261 262 263 264 265 484 485 275 277 279 451 450"/>
    </vehicle>
    <vehicle id="110_0" type="car" depart="25763.00">
        <route edges="344 346 67 65 63 61 108 203 405 403 401 312 296 297 298 299 300 301 302 123 124 125 126 127 128 129"/>
    </vehicle>
    <vehicle id="1739_0" type="car" depart="25797.00">
        <route edges="3 4 2 17 19 21 23 25 27 29 31 442 443 185 186 187 303 304 305 306 287 288 289 290 291 292 293 294 295 408 409 410 338 340 342 344 346 348 350 352 354 356 609 610 611 612 255 576 577 578 590 592 90 91 92 93 94 95 96"/>
    </vehicle>
    <vehicle id="201_0" type="car" depart="25805.00">
        <route edges="601 530 528 526 524 522 520 518 516 514 512 510 599 597 595 593 591 472 473 474 260 261 262 263 264 265 266 267 268 269 270 307 308 309 310 311 312 496 495"/>
    </vehicle>
    <vehicle id="2359_0" type="car" depart="25818.00">
        <route edges="235 233 231 229 227 225 223 221 219 217 215 213 211 209 207 205 603 601 626 624 622 441 439 437 435 433 385 291 292 293 294 295 555 556 557 177 178 179 481 482 483 32 30 28 26 24 22 20 18 1 3 412 411"/>
    </vehicle>
    <vehicle id="2287_0" type="car" depart="25828.00">
        <route edges="151 174 589 587 585 627 629 100 98 414 569 570 571 287 288 289 290 291 292 293 294 295 408 409 410 338 340 342 344 346 67 65 63 61 108 203 405 403 401 312 296 297 298 299 300 301 302"/>
    </vehicle>
    <vehicle id="418_0" type="car" depart="25831.00">
        <route edges="86 88 89 87 85 83 81 79 77 496 191 402 404 406 55 53 51 49 47 10 8 11 12"/>
    </vehicle>
    <vehicle id="2077_0" type="car" depart="25838.00">
        <route edges="512 510 599 597 595 593 591 472 473 474 260 261 262 263 264 265 266 267 268 269 270 271 272 273 274 249 250 604 605 606"/>
    </vehicle>
    <vehicle id="2319_0" type="car" depart="25857.00">
        <route edges="609 610 611 612 255 256 257 258 259 260 261 262 263 264 265 266 267 268 269 270 271 272 273 274 249 250 604 605 606 607 608 357 355 353 351 349 347 345 343 341 339 240 241 242 177 178 179 481 482 483 32 30 28 26 24 22 20 18 1 3 412 411"/>
    </vehicle>
    <vehicle id="24_0" type="car" depart="25860.00">
        <route edges="433 385 291 292 293 294 295 408 409 410 338 340 342"/>
    </vehicle>
    <vehicle id="434_0" type="car" depart="25864.00">
        <route edges="350 352 354 356 609 610 611 612 255 576 577 578 590 592 594 596 598 509 511 513 515 517 519 521 523 525 527 529 600 602 204 206 208 210 212 214 216 218 220 222 224 226 228 230 232 234 236 238 239 237 235 233 231 229 227 225 223 221 219 217 215"/>
    </vehicle>
    <vehicle id="1430_0" type="car" depart="25868.00">
        <route edges="525 527 529 530 528 526 524 522 520 518 516 514 512 510 599 597 595 593 591 472 473 474 260 261 262 263 264 265 266 267 268 269 270 271 272 273 274 249 250 251 252"/>
    </vehicle>
    <vehicle id="904_0" type="car" depart="25871.00">
        <route edges="376 378 380 382 100 98 414 569 570 571 287 288 289 290 291 292 293 294 295 408 409 410 338 340 342 344 346 347"/>
    </vehicle>
    <vehicle id="1661_0" type="car" depart="25876.00">
        <route edges="153 494 492 587 585 627 629 613 615 617 619 621 623 625 530 528 526 524 522 520 518 516 514"/>
    </vehicle>
    <vehicle id="2140_0" type="car" depart="25896.00">
        <route edges="231 229 227 225 223 221 219 217 215 213 211 209 207 205 603 601 626 624 622 620 618 616 614 383 381 379 377 375 373 371 369 367 365 363 361 359 358 360 362 364 366 368 370 372 374 376"/>
    </vehicle>
    <vehicle id="1338_0" type="car" depart="25906.00">
        <route edges="455 453 589 587 585 627 629 100 98 414 569 570 571 287 288 289 290 291 292 293 294 295 408 409 410 338 340 342 344 346 67 65 63 480 478 476"/>
    </vehicle>
    <vehicle id="409_0" type="car" depart="25935.00">
        <route edges="600 602 204 206 208 210 212 214 216 218 220 222 224 226 228 230 232 234 236 238 239 237 235 233 231 229 227 225 223 221 219 217 215 213 211 209 207 205 603 601 530 528 526 524 522 520 518 516 514 512 510 599 597 595 593 591 472 473 474 260 261 262 263 264 265 266 267 268 269 270 271 272 273 274 249 250 604 605"/>
    </vehicle>
    <vehicle id="2275_0" type="car" depart="25936.00">
        <route edges="463 461 459 457 455 453 589 587 585 627 629 100 98 414 569 570 571 287 288 289 290 291 292 293 294 295 408 409 410 338 340 342 344 346 348 350 352 354 356 609 610 611 612 255 256 257 258 259 260 261 262 263 264 265 484 485 275 277 279 451 449 447 80 82 84 86 88 89 87 85"/>
    </vehicle>
    <vehicle id="466_0" type="car" depart="25987.00">
        <route edges="97 99 100 98 414 569 570 571 287 288 289 290 291 292 293 294 295 555 556 557 177 178 179 481 482"/>
    </vehicle>
    <vehicle id="737_0" type="car" depart="26026.00">
        <route edges="70 450 280 278 276 13 14 15 16 270 271 272 273 274 249 250 251 252 253 254 255 576 577 578 590 592 594 596 598 509 511 513 515 517 519 521 523 525 527 529 626 624 622 620 130 132 134 136 138 140 142 144 146 148 149 147 145 143 141 139 137 135"/>
    </vehicle>
    <vehicle id="1035_0" type="car" depart="26037.00">
        <route edges="381 379 377 375 373 371 369 367 365 363 361 359 358 360 362 364 366 368 370 372 374 376 378 380 382 100 98 414 569 570 571 287 288 289 290 291 292 293 294 295 408 409 410 338 340 342 344 346 67 65 63 61"/>
    </vehicle>
    <vehicle id="1401_0" type="car" depart="26060.00">
        <route edges="405 403 402 404 202"/>
    </vehicle>
    <vehicle id="1918_0" type="car" depart="26091.00">
        <route edges="340 342 344 346 348 350 352 354 356 609 610 611 612 255 256 257 258 259 260 261 262 263 264 265 266 267 268 269 270 307 308 309"/>
    </vehicle>
    <vehicle id="1832_0" type="car" depart="26098.00">
        <route edges="437 435 433 385 291 292 293 294 295 555 556 557 177 178 179 180 181 182 183 184 185 186 187 387 388 389 390 413 579 580 581 582 583"/>
    </vehicle>
    <vehicle id="1260_0" type="car" depart="26159.00">
        <route edges="385 291 292 293 294 295 555 556 557 177 178 179 481 482 483 32 30 248 246"/>
    </vehicle>
    <vehicle id="767_0" type="car" depart="26162.00">
        <route edges="536 535 537 539 541 543 545 547 549 111 113 115 117 119 121 345 343 341 339 240 241 242 177 178 179 180 181 182 183 184 185 186 187 387 388 389 390"/>
    </vehicle>
    <vehicle id="1800_0" type="car" depart="26178.00">
        <route edges="620 619 621 623 625 530 528 526 524 522 520 518 516 514 512 510 508"/>
    </vehicle>
    <vehicle id="363_0" type="car" depart="26185.00">
        <route edges="144 146 148 149 147 145 143 141 139 137 135 133 131 618 616 614 630 628 584 586 588 452 454"/>
    </vehicle>
    <vehicle id="782_0" type="car" depart="26187.00">
        <route edges="552 535 537 539 541 543 545 547 549 111 113 115 117 119 121 345 343 341 339 338 340"/>
    </vehicle>
    <vehicle id="1208_0" type="car" depart="26189.00">
        <route edges="363 361 359 358 360 362 364 366 368 370 372 374 376 378 380 382 613 615 617 619 621 623 625 600 602 204 206 208 210 212 214 216 218 220"/>
    </vehicle>
    <vehicle id="1815_0" type="car" depart="26194.00">
        <route edges="537 539 541 543 545 547 549 111 113 115 117 119 121 122 120 118 116 114 112 550 548 546 544 542"/>
    </vehicle>
    <vehicle id="757_0" type="car" depart="26207.00">
        <route edges="380 382 100 98 414 569 570 571 287 288 289 290 291 292 293 294 295 408 409 410 338 340 342 344 346 67 65 63 61 108 203 405 403 401 312 296"/>
    </vehicle>
    <vehicle id="92_0" type="car" depart="26208.00">
        <route edges="453 589 587 585 627 629 100 98 414 569 570 571 287 288 289 290 291 292 293 294 295 408 409 410 338 340 342 344 346 348 350 352 354 356 609 610 611 612 255 256 257 258 259 260 261 262 263 264 265 484 485 275 277 278 276"/>
    </vehicle>
    <vehicle id="2484_0" type="car" depart="26218.00">
        <route edges="19 21 23 25 27 29 31 442 443 185 186 187 303 304 305 306 287 288 289 290 291 292 293"/>
    </vehicle>
    <vehicle id="270_0" type="car" depart="26244.00">
        <route edges="100 98 414 569 570 571 287 288 289 290 291 292 293 294 295 408 409 410 338 340 342 344 346 348 350 352 354 356 609 610 611 612 255 256 257 258 259 260 188 189 190"/>
    </vehicle>
    <vehicle id="793_0" type="car" depart="26275.00">
        <route edges="626 624 622 441 439 437 435 433 385 291 292 293 294 295 555 556 557 177 178 179 180 181 182 183 184 185 186 187 387 388 323 325 327 329"/>
    </vehicle>
    <vehicle id="221_0" type="car" depart="26292.00">
        <route edges="116 114 112 550 548 546 544 542 540 538 536 535 537 539 541 543 545 547 549 111 113 115 117 119 121 345 343 341 339 240 241 242 177 178 179 180 181 182 183 184 185 186 187 303 304 305 306 287 288 384 432 434 436"/>
    </vehicle>
    <vehicle id="23_0" type="car" depart="26300.00">
        <route edges="340 342 344 346 348 350 352 354 356 609 610"/>
    </vehicle>
    <vehicle id="600_0" type="car" depart="26316.00">
        <route edges="549 111 113 115 117 119 121 345 343 341 339 240 241 242 177 178 179 180 181 182 183 184 185 186 187 387 388 389 390 413 579 580 581 582 583"/>
    </vehicle>
    <vehicle id="1618_0" type="car" depart="26319.00">
        <route edges="408 409 410 240 241 242 177 178 179 481 482 483 32 30 28 26"/>
    </vehicle>
    <vehicle id="1327_0" type="car" depart="26383.00">
        <route edges="273 274 249 250 604 605 606 607 608 357 355 353 351 349 347 345 343 341 339 240 241 242 177 178 179 481 482 483 32 30 28 26 24 22 20 18 1 3 5 7"/>
    </vehicle>
    <vehicle id="438_0" type="car" depart="26394.00">
        <route edges="441 439 437 435 433 385 291 292 293 294 295 555 556"/>
    </vehicle>
    <vehicle id="1564_0" type="car" depart="26412.00">
        <route edges="509 511 513 515 517 519 521 523 525 527 529 530 528 526 524 522 520 518 516 514 512 510 599 597 595 593 591 472 473 474 260 261 262 263 264 265 484 485 275 277 279 451 449 396"/>
    </vehicle>
    <vehicle id="1073_0" type="car" depart="26415.00">
        <route edges="394 448 450 280 278 276 13 14 15 16 270 271 272 273 274 249 250 604 605 606 607 608 357 355 353 351 349 347 345 343 341 339 240 241 242 177 178 179 180 181 182 183 184 185 186 187 387 388 389 390 413 97 99 383 381 379 377 375 373 371 369 367 365 363 361 359 358 360 362 364 366 368 370 372 374 376 378"/>
    </vehicle>
    <vehicle id="2271_0" type="car" depart="26421.00">
        <route edges="239 237 235 233 231 229 227 225 223 221 219 217 215 213 211 209 207 205 603 601 626 624 622 441 439 437 435 433 385 291 292 293 294 295 555 556 557 177 178 179 180 181 182 183 184 185 186 187"/>
    </vehicle>
    <vehicle id="1595_0" type="car" depart="26422.00">
        <route edges="476 194 195 196 197 249 250 251 252 253 254 255 256 257 258 259 260 261 262 263 264 265 484 485 275 277 279 451 449 447 80 82"/>
    </vehicle>
    <vehicle id="1762_0" type="car" depart="26426.00">
        <route edges="556 557 177 178 179 180 181 182 183 184 185 186 187 303 304 305 306 287 288 384 432 434 436 438 440 621 623 625 600 602 204 206 208 210 212 214 216"/>
    </vehicle>
    <vehicle id="972_0" type="car" depart="26443.00">
        <route edges="608 357 355 353 351 349 348 350 352 354 356 609 610 611 612 255 256 257 258 259 260 261 262 263 264 265 484 485 275 277 279 281"/>
    </vehicle>
    <vehicle id="1583_0" type="car" depart="26446.00">
        <route edges="610 611 612 255 256 257 258 259 260 261 262 263 264 265 266 267 268 269 270 271 272 273 274 249 250 604 605 606 607 608 357 355 353 351 349 347 345 343 341 339 240 241 242 177 178 179 180 181 182 183 184 185 186 187 387 388 389 390 413 579 580 581 582 583 584 586 588 452 454 456 458 460"/>
    </vehicle>
    <vehicle id="1359_0" type="car" depart="26456.00">
        <route edges="461 459 457 455 453 173 150 152 154 155 156 157 158 159 160 161 162 163"/>
    </vehicle>
    <vehicle id="1224_0" type="car" depart="26469.00">
        <route edges="447 446 448 450 280 278 276 13 14 15 16 270 271 272 273 274 249 250 604 605 606 607 608 357"/>
    </vehicle>
    <vehicle id="940_0" type="car" depart="26499.00">
        <route edges="282 280 278 276 13 14 15 16 270 271 272 273 274 249 250 604 605 606 607 608 357 355 353 351 349 67 65 63 61"/>
    </vehicle>
    <vehicle id="1423_0" type="car" depart="26504.00">
        <route edges="199 198 200 406 56 58 60 62 64 66 347 122"/>
    </vehicle>
    <vehicle id="2366_0" type="car" depart="26506.00">
        <route edges="622 441 439 437 435 433 385 291 292 293 294 295 408 409 410 338 340 342 344 346 67 65 63 61 59 57"/>
    </vehicle>
    <vehicle id="353_0" type="car" depart="26510.00">
        <route edges="597 595 594 596 598 509 511 513 515 517 519 521 523 525 527 529 626 624 622 620 618 616 614 630 628 584 586 491 493 152 154 155 156 157 158 159 160 161 162"/>
    </vehicle>
    <vehicle id="1189_0" type="car" depart="26522.00">
        <route edges="175 506 504 502 23 25 27 29 31 442 443 185 186 187 303 304 305 306 287 288 289 290 291 292 293 294 295 408 409 410 338 340 342 344 346 348 350 352 354 356 609 610 611 612 255 256 257 258 259 260 188 189"/>
    </vehicle>
    <vehicle id="407_0" type="car" depart="26526.00">
        <route edges="310 110 193 194 195 196 197 249 250 604 605 606 607 608 357 355 353 351 349 347 345 343 341 339 240 241 242 177 178 179 180 181 182 183 184 185"/>
    </vehicle>
    <vehicle id="883_0" type="car" depart="26526.00">
        <route edges="564 191 192 193 194 195 196 197 249 250 604 605 606 607 608 357 355 353 351 349 347 345 343 341 339 240 241 242 177 178 179 180 181 182 183 184 185 186 187 387 388 323 325 327 329"/>
    </vehicle>