<?xml version="1.0" encoding="UTF-8"?>
<!DOCTYPE facilities SYSTEM "http://www.matsim.org/files/dtd/facilities_v1.dtd">

<facilities>
	<facility id="167120999" x="10.9358861" y="44.6538936">
		<activity type="nightclub">
		</activity>
	</facility>
	<facility id="167121828" x="10.9353627" y="44.6550744">
		<activity type="bank">
		</activity>
	</facility>
	<facility id="167278783" x="10.9379" y="44.6560176">
		<activity type="place_of_worship">
		</activity>
	</facility>
	<facility id="167278988" x="10.9399932" y="44.6597645">
		<activity type="restaurant">
		</activity>
	</facility>
	<facility id="1755033773" x="10.9343372" y="44.655332">
		<activity type="bicycle_parking">
		</activity>
	</facility>
	<facility id="1785268255" x="10.9358049" y="44.654884">
		<activity type="restaurant">
		</activity>
	</facility>
	<facility id="193672381" x="10.9404932" y="44.6557125">
		<activity type="car interaction">			<capacity value="34.0" />

		</activity>
		<attributes>
			<attribute name="links" class="java.lang.String">32049284;32049422;193672344;193672347;193672362;193672381;490523256</attribute>
		</attributes>
	</facility>
	<facility id="193672382" x="10.9434154" y="44.6544569">
		<activity type="car interaction">			<capacity value="10.0" />

		</activity>
		<attributes>
			<attribute name="links" class="java.lang.String">33787639;193672382</attribute>
		</attributes>
	</facility>
	<facility id="2013474816" x="10.9293872" y="44.655704">
		<activity type="bicycle_rental">
		</activity>
	</facility>
	<facility id="2401540733" x="10.9298882" y="44.6563763">
		<activity type="charging_station">
		</activity>
	</facility>
	<facility id="306563388" x="10.9348712" y="44.655023">
		<activity type="car interaction">			<capacity value="14.0" />

		</activity>
		<attributes>
			<attribute name="links" class="java.lang.String">306563388;622683998</attribute>
		</attributes>
	</facility>
	<facility id="321892061" x="10.9300321" y="44.6540862">
		<activity type="taxi">
		</activity>
	</facility>
	<facility id="32875046" x="10.9286414" y="44.6559109">
		<activity type="car interaction">			<capacity value="66.0" />

		</activity>
		<attributes>
			<attribute name="links" class="java.lang.String">32875046;32875134;190655401;190655417;365182715;397924980;690163986;691042241;691042488</attribute>
		</attributes>
	</facility>
	<facility id="3410716173" x="10.9323724" y="44.6574404">
		<activity type="social_facility">
		</activity>
	</facility>
	<facility id="3410716174" x="10.9319821" y="44.6576235">
		<activity type="library">
		</activity>
	</facility>
	<facility id="35978070" x="10.9302788" y="44.6575675">
		<activity type="car interaction">			<capacity value="58.0" />

		</activity>
		<attributes>
			<attribute name="links" class="java.lang.String">35978058;35978060;35978064;35978065;35978068;35978069;35978070;193166684;209730256;473994205;976186501;976186502</attribute>
		</attributes>
	</facility>
	<facility id="3857713774" x="10.9337916" y="44.6552746">
		<activity type="post_office">
		</activity>
	</facility>
	<facility id="3949507251" x="10.9305987" y="44.6543214">
		<activity type="cafe">
		</activity>
	</facility>
	<facility id="3949507252" x="10.9307479" y="44.6543041">
		<activity type="fast_food">
		</activity>
	</facility>
	<facility id="4402920547" x="10.9314327" y="44.6579797">
		<activity type="school">
		</activity>
	</facility>
	<facility id="4402920548" x="10.9407024" y="44.6550271">
		<activity type="school">
		</activity>
	</facility>
	<facility id="4402920549" x="10.9403457" y="44.654491">
		<activity type="kindergarten">
		</activity>
	</facility>
	<facility id="4474120267" x="10.929836" y="44.6544211">
		<activity type="toilets">
		</activity>
	</facility>
	<facility id="4692363715" x="10.9401905" y="44.657459">
		<activity type="toilets">
		</activity>
	</facility>
	<facility id="4692365473" x="10.9402009" y="44.6575661">
		<activity type="cafe">
		</activity>
	</facility>
	<facility id="4712488587" x="10.937015" y="44.6597065">
		<activity type="cafe">
		</activity>
	</facility>
	<facility id="4712488731" x="10.934872" y="44.6574653">
		<activity type="restaurant">
		</activity>
	</facility>
	<facility id="4712504560" x="10.9366474" y="44.6575621">
		<activity type="restaurant">
		</activity>
	</facility>
	<facility id="4712504690" x="10.9365184" y="44.6569153">
		<activity type="restaurant">
		</activity>
	</facility>
	<facility id="4712504740" x="10.9352052" y="44.6561094">
		<activity type="pharmacy">
		</activity>
	</facility>
	<facility id="4712513720" x="10.9291786" y="44.6565445">
		<activity type="restaurant">
		</activity>
	</facility>
	<facility id="4712513750" x="10.9288819" y="44.6571076">
		<activity type="cafe">
		</activity>
	</facility>
	<facility id="4712531966" x="10.9327511" y="44.6570241">
		<activity type="bank">
		</activity>
	</facility>
	<facility id="4712532335" x="10.9339244" y="44.6555189">
		<activity type="cafe">
		</activity>
	</facility>
	<facility id="4712535821" x="10.9360867" y="44.6556893">
		<activity type="cafe">
		</activity>
	</facility>
	<facility id="4712544542" x="10.9353436" y="44.6553419">
		<activity type="fast_food">
		</activity>
	</facility>
	<facility id="473994209" x="10.9340796" y="44.6562164">
		<activity type="fuel">
		</activity>
	</facility>
	<facility id="473994210" x="10.9346041" y="44.6558866">
		<activity type="car interaction">			<capacity value="56.0" />

		</activity>
		<attributes>
			<attribute name="links" class="java.lang.String">457970267;473994207;473994208;473994209;473994210</attribute>
		</attributes>
	</facility>
	<facility id="486372123" x="10.932085" y="44.6574179">
		<activity type="car interaction">			<capacity value="30.0" />

		</activity>
		<attributes>
			<attribute name="links" class="java.lang.String">323342967;323342969;323342970;486372123</attribute>
		</attributes>
	</facility>
	<facility id="486372137" x="10.9314417" y="44.6586391">
		<activity type="car interaction">			<capacity value="36.0" />

		</activity>
		<attributes>
			<attribute name="links" class="java.lang.String">442620518;486372125;486372137;964314867</attribute>
		</attributes>
	</facility>
	<facility id="623946650" x="10.9427623" y="44.6540534">
		<activity type="car interaction">			<capacity value="52.0" />

		</activity>
		<attributes>
			<attribute name="links" class="java.lang.String">623944291;623946650;624045615;716703803;716703804</attribute>
		</attributes>
	</facility>
	<facility id="643397240" x="10.9350652" y="44.6544384">
		<activity type="car interaction">			<capacity value="250.0" />

		</activity>
		<attributes>
			<attribute name="links" class="java.lang.String">191742050;191742053;191742056;619244003;643397240</attribute>
		</attributes>
	</facility>
	<facility id="6914838299" x="10.929949" y="44.6583141">
		<activity type="pharmacy">
		</activity>
	</facility>
	<facility id="6914838302" x="10.930236" y="44.6584381">
		<activity type="restaurant">
		</activity>
	</facility>
	<facility id="7913219454" x="10.9293123" y="44.6560196">
		<activity type="charging_station">
		</activity>
	</facility>
	<facility id="850164185" x="10.9299229" y="44.6562084">
		<activity type="clinic">
		</activity>
	</facility>
	<facility id="8543787975" x="10.936647" y="44.6575281">
		<activity type="restaurant">
		</activity>
	</facility>
	<facility id="8579683014" x="10.9339225" y="44.6554995">
		<activity type="vending_machine">
		</activity>
	</facility>
	<facility id="8638162046" x="10.9292857" y="44.6593167">
		<activity type="bar">
		</activity>
	</facility>
</facilities>