<edges>
	<edge id="32047570_359727006_359727008" from="359727006" to="359727008" numLanes="1" shape="653587.14,4946906.37,0.00 653415.63,4946645.43,0.00" speed="8.33" />
	<edge id="32047800_359727832_359729669" from="359727832" to="359729669" numLanes="1" shape="653538.90,4946562.73,0.00 653714.45,4946825.21,0.00" speed="13.89" />
	<edge id="622683999_5881248335_5881241908" from="5881248335" to="5881241908" numLanes="2" shape="653405.40,4946483.44,0.00 653407.67,4946487.57,0.00 653410.14,4946491.51,0.00 653411.74,4946494.14,0.00" speed="13.89" />
	<edge id="193166668_6483892906_6485921797" from="6483892906" to="6485921797" numLanes="1" shape="652945.06,4946621.88,0.00 652971.10,4946665.48,0.00 652987.30,4946691.39,0.00" speed="13.89" />
	<edge id="976698608_9038148626_359726889" from="9038148626" to="359726889" numLanes="2" shape="653530.70,4946937.71,0.00 653532.68,4946936.92,0.00 653534.80,4946936.82,0.00 653536.84,4946937.39,0.00 653538.60,4946938.59,0.00 653539.90,4946939.64,0.00" speed="8.33" />
	<edge id="35978076_2976099656_309133522" from="2976099656" to="309133522" numLanes="1" shape="652951.81,4946999.76,0.00 652950.92,4946970.01,0.00 652948.92,4946906.69,0.00" speed="16.67" />
	<edge id="32047907_359729670_359729669" from="359729670" to="359729669" numLanes="1" shape="653784.44,4946781.20,0.00 653714.45,4946825.21,0.00" speed="8.33" />
	<edge id="23584793_359873981_6485921798" from="359873981" to="6485921798" numLanes="1" shape="652943.57,4946631.06,0.00 652942.84,4946701.21,0.00" speed="8.33" />
	<edge id="133896681_359727630_359727631" from="359727630" to="359727631" numLanes="1" shape="653987.95,4946882.11,0.00 654078.13,4946970.22,0.00" speed="8.33" />
	<edge id="32047800_359727835_359727832" from="359727835" to="359727832" numLanes="1" shape="653484.51,4946478.34,0.00 653538.90,4946562.73,0.00" speed="13.89" />
	<edge id="32047800_359729669_359727831" from="359729669" to="359727831" numLanes="1" shape="653714.45,4946825.21,0.00 653827.89,4946999.62,0.00" speed="13.89" />
	<edge id="32047800_359729669_359727832" from="359729669" to="359727832" numLanes="1" shape="653714.45,4946825.21,0.00 653538.90,4946562.73,0.00" speed="13.89" />
	<edge id="174500800_359730430_359729959" from="359730430" to="359729959" numLanes="1" shape="653882.71,4946966.55,0.00 653929.22,4946929.55,0.00" speed="8.33" />
	<edge id="294039091_2976104402_2976099658" from="2976104402" to="2976099658" numLanes="1" shape="652955.54,4947114.23,0.00 653096.67,4947023.15,0.00" speed="8.33" />
	<edge id="32047570_359727005_359727006" from="359727005" to="359727006" numLanes="1" shape="653770.22,4947182.37,0.00 653701.27,4947080.34,0.00 653587.14,4946906.37,0.00" speed="8.33" />
	<edge id="200445697_359728637_359728639" from="359728637" to="359728639" numLanes="1" shape="653618.75,4946468.63,0.00 653624.13,4946466.66,0.00 653628.62,4946462.08,0.00 653628.92,4946456.12,0.00" speed="13.89" />
	<edge id="174500800_359729959_359731167" from="359729959" to="359731167" numLanes="1" shape="653929.22,4946929.55,0.00 653937.14,4946918.11,0.00" speed="8.33" />
	<edge id="28166525_309108833_250854407" from="309108833" to="250854407" numLanes="1" shape="653393.39,4946423.26,0.00 653393.39,4946406.15,0.00 653392.24,4946387.77,0.00 653387.61,4946360.51,0.00 653385.59,4946352.85,0.00 653382.58,4946344.39,0.00 653375.39,4946327.61,0.00" speed="13.89" />
	<edge id="35978076_309133522_2976099656" from="309133522" to="2976099656" numLanes="1" shape="652948.92,4946906.69,0.00 652950.92,4946970.01,0.00 652951.81,4946999.76,0.00" speed="16.67" />
	<edge id="193166664_2036822513_309131588" from="2036822513" to="309131588" numLanes="1" shape="653014.22,4946823.90,0.00 652975.50,4946854.64,0.00" speed="16.67" />
	<edge id="35847068_359727835_419107929" from="359727835" to="419107929" numLanes="1" shape="653484.51,4946478.34,0.00 653440.10,4946477.19,0.00" speed="13.89" />
	<edge id="976185943_6485921797_6485921800" from="6485921797" to="6485921800" numLanes="1" shape="652987.30,4946691.39,0.00 652983.35,4946694.97,0.00" speed="8.33" />
	<edge id="691235181_6485921798_6485921800" from="6485921798" to="6485921800" numLanes="1" shape="652942.84,4946701.21,0.00 652972.34,4946702.55,0.00 652983.35,4946694.97,0.00" speed="8.33" />
	<edge id="323342968_4731177014_3301414461" from="4731177014" to="3301414461" numLanes="1" shape="653156.69,4946906.05,0.00 653160.04,4946903.74,0.00 653172.15,4946895.37,0.00" speed="8.33" />
	<edge id="35847068_359728415_359739377" from="359728415" to="359739377" numLanes="1" shape="653499.61,4946479.45,0.00 653525.67,4946480.01,0.00 653528.96,4946480.08,0.00" speed="13.89" />
	<edge id="32048195_359730520_359730430" from="359730520" to="359730430" numLanes="1" shape="653979.91,4947110.94,0.00 653882.71,4946966.55,0.00" speed="8.33" />
	<edge id="23584793_6485921798_359873981" from="6485921798" to="359873981" numLanes="1" shape="652942.84,4946701.21,0.00 652943.57,4946631.06,0.00" speed="8.33" />
	<edge id="28401360_250857522_250857518" from="250857522" to="250857518" numLanes="1" shape="652977.55,4946566.40,0.00 652985.23,4946561.37,0.00 653014.70,4946542.11,0.00 653017.08,4946540.55,0.00 653051.48,4946516.77,0.00 653061.31,4946510.12,0.00 653138.59,4946457.30,0.00 653203.88,4946411.18,0.00 653209.99,4946406.86,0.00 653247.86,4946380.30,0.00 653262.14,4946370.28,0.00 653294.05,4946351.53,0.00" speed="13.89" />
	<edge id="495295548_1076629757_2036822491" from="1076629757" to="2036822491" numLanes="2" shape="653073.95,4946781.28,0.00 653075.48,4946788.01,0.00 653074.60,4946794.86,0.00 653072.62,4946798.15,0.00" speed="16.67" />
	<edge id="130070477_2023217212_359728639" from="2023217212" to="359728639" numLanes="1" shape="653548.18,4946246.76,0.00 653601.19,4946384.21,0.00 653628.92,4946456.12,0.00" speed="13.89" />
	<edge id="495295547_1786899256_2036822478" from="1786899256" to="2036822478" numLanes="2" shape="653043.34,4946773.20,0.00 653045.71,4946771.64,0.00 653046.93,4946771.21,0.00 653052.24,4946769.33,0.00 653059.18,4946769.40,0.00 653063.16,4946770.88,0.00" speed="16.67" />
	<edge id="405724954_2036822451_359874120" from="2036822451" to="359874120" numLanes="1" shape="652942.41,4946734.13,0.00 652817.04,4946676.81,0.00 652803.93,4946673.29,0.00 652792.14,4946673.03,0.00 652780.48,4946674.86,0.00 652769.71,4946678.64,0.00 652761.44,4946683.54,0.00 652754.02,4946689.02,0.00 652747.54,4946695.82,0.00 652742.49,4946702.48,0.00 652734.30,4946718.80,0.00" speed="8.33" />
	<edge id="688182342_370304526_5851983802" from="370304526" to="5851983802" numLanes="1" shape="652969.75,4946571.47,0.00 652959.93,4946577.88,0.00" speed="13.89" />
	<edge id="622676077_5881180819_5881180818" from="5881180819" to="5881180818" numLanes="1" shape="653392.61,4946443.06,0.00 653395.18,4946454.67,0.00 653396.74,4946459.48,0.00 653398.64,4946464.12,0.00" speed="13.89" />
	<edge id="480088113_3301414254_4731177013" from="3301414254" to="4731177013" numLanes="1" shape="653326.53,4946880.36,0.00 653219.13,4946948.58,0.00 653216.37,4946950.34,0.00" speed="8.33" />
	<edge id="32048104_359729959_359730282" from="359729959" to="359730282" numLanes="1" shape="653929.22,4946929.55,0.00 653998.58,4947021.39,0.00 653985.41,4947031.25,0.00" speed="8.33" />
	<edge id="688182345_6483892906_6452388545" from="6483892906" to="6452388545" numLanes="2" shape="652945.06,4946621.88,0.00 652936.89,4946608.42,0.00 652933.71,4946603.20,0.00" speed="13.89" />
	<edge id="619244002_5851983806_359728130" from="5851983806" to="359728130" numLanes="1" shape="653411.74,4946325.07,0.00 653417.24,4946333.52,0.00 653422.88,4946341.84,0.00 653431.01,4946347.72,0.00 653438.87,4946353.10,0.00" speed="13.89" />
	<edge id="32047570_359727008_359727006" from="359727008" to="359727006" numLanes="1" shape="653415.63,4946645.43,0.00 653587.14,4946906.37,0.00" speed="8.33" />
	<edge id="303682518_420524188_2036822498" from="420524188" to="2036822498" numLanes="1" shape="653077.75,4946823.14,0.00 653067.76,4946815.95,0.00 653059.57,4946808.18,0.00" speed="13.89" />
	<edge id="32035141_359727008_359530535" from="359727008" to="359530535" numLanes="1" shape="653415.63,4946645.43,0.00 653361.27,4946681.82,0.00" speed="8.33" />
	<edge id="193166666_2036822497_2036822513" from="2036822497" to="2036822513" numLanes="1" shape="653046.46,4946806.38,0.00 653038.17,4946809.64,0.00 653033.59,4946812.98,0.00 653028.87,4946815.79,0.00 653014.22,4946823.90,0.00" speed="16.67" />
	<edge id="964314866_8919720134_8919680414" from="8919720134" to="8919680414" numLanes="1" shape="653218.93,4946964.08,0.00 653217.30,4946967.25,0.00 653214.94,4946969.90,0.00 653213.28,4946971.01,0.00" speed="13.89" />
	<edge id="35978053_3301414229_3301414254" from="3301414229" to="3301414254" numLanes="1" shape="653286.66,4946819.91,0.00 653326.53,4946880.36,0.00" speed="8.33" />
	<edge id="35978076_2976099656_255396512" from="2976099656" to="255396512" numLanes="1" shape="652951.81,4946999.76,0.00 652951.98,4947014.17,0.00" speed="16.67" />
	<edge id="35978053_3301414211_3301414229" from="3301414211" to="3301414229" numLanes="1" shape="653246.07,4946758.98,0.00 653286.66,4946819.91,0.00" speed="8.33" />
	<edge id="964314866_8919680413_4731177013" from="8919680413" to="4731177013" numLanes="1" shape="653196.46,4946948.58,0.00 653199.93,4946946.40,0.00 653203.89,4946945.31,0.00 653208.00,4946945.40,0.00 653211.91,4946946.66,0.00 653215.29,4946948.99,0.00 653216.37,4946950.34,0.00" speed="13.89" />
	<edge id="32047800_359727832_359727835" from="359727832" to="359727835" numLanes="1" shape="653538.90,4946562.73,0.00 653484.51,4946478.34,0.00" speed="13.89" />
	<edge id="32048251_359731167_359740556" from="359731167" to="359740556" numLanes="1" shape="653937.14,4946918.11,0.00 653885.70,4946843.53,0.00" speed="8.33" />
	<edge id="480088113_4731177013_3301414254" from="4731177013" to="3301414254" numLanes="1" shape="653216.37,4946950.34,0.00 653219.13,4946948.58,0.00 653326.53,4946880.36,0.00" speed="8.33" />
	<edge id="32035131_359530216_359529731" from="359530216" to="359529731" numLanes="2" shape="653322.95,4946625.57,0.00 653428.19,4946558.27,0.00 653431.17,4946556.40,0.00 653436.80,4946552.84,0.00" speed="8.33" />
	<edge id="32047800_359727831_359729669" from="359727831" to="359729669" numLanes="1" shape="653827.89,4946999.62,0.00 653714.45,4946825.21,0.00" speed="13.89" />
	<edge id="35847026_359728415_2023217240" from="359728415" to="2023217240" numLanes="2" shape="653499.61,4946479.45,0.00 653477.39,4946432.42,0.00 653450.55,4946375.59,0.00" speed="13.89" />
	<edge id="32033947_288400466_359524441" from="288400466" to="359524441" numLanes="2" shape="653377.47,4946474.48,0.00 653375.57,4946468.70,0.00 653373.08,4946463.06,0.00 653368.19,4946452.77,0.00" speed="13.89" />
	<edge id="174500800_359731167_359729959" from="359731167" to="359729959" numLanes="1" shape="653937.14,4946918.11,0.00 653929.22,4946929.55,0.00" speed="8.33" />
	<edge id="133896681_359727631_359727630" from="359727631" to="359727630" numLanes="1" shape="654078.13,4946970.22,0.00 653987.95,4946882.11,0.00" speed="8.33" />
	<edge id="32035148_359727832_359530751" from="359727832" to="359530751" numLanes="1" shape="653538.90,4946562.73,0.00 653579.39,4946537.12,0.00 653698.75,4946689.46,0.00" speed="8.33" />
	<edge id="622683999_359729668_359727628" from="359729668" to="359727628" numLanes="2" shape="653656.83,4946861.76,0.00 653772.46,4947032.36,0.00" speed="13.89" />
	<edge id="619244002_2023217236_359728130" from="2023217236" to="359728130" numLanes="1" shape="653460.80,4946367.40,0.00 653438.87,4946353.10,0.00" speed="13.89" />
	<edge id="191742012_2023217236_359728413" from="2023217236" to="359728413" numLanes="2" shape="653460.80,4946367.40,0.00 653558.35,4946439.05,0.00 653575.97,4946451.98,0.00" speed="13.89" />
	<edge id="737507800_420524156_3301414198" from="420524156" to="3301414198" numLanes="1" shape="653207.15,4946661.58,0.00 653210.18,4946666.67,0.00 653213.07,4946671.11,0.00 653215.64,4946676.62,0.00 653223.60,4946689.21,0.00" speed="8.33" />
	<edge id="486372136_3301414461_4789931576" from="3301414461" to="4789931576" numLanes="1" shape="653172.15,4946895.37,0.00 653198.13,4946924.00,0.00 653204.55,4946919.63,0.00" speed="8.33" />
	<edge id="32047907_359729668_359726698" from="359729668" to="359726698" numLanes="1" shape="653656.83,4946861.76,0.00 653645.28,4946869.83,0.00" speed="8.33" />
	<edge id="960705969_420524188_4731177014" from="420524188" to="4731177014" numLanes="1" shape="653077.75,4946823.14,0.00 653126.80,4946873.07,0.00 653156.69,4946906.05,0.00" speed="13.89" />
	<edge id="978138011_359727627_359726698" from="359727627" to="359726698" numLanes="2" shape="653760.00,4947041.88,0.00 653645.28,4946869.83,0.00" speed="13.89" />
	<edge id="35847081_359727836_250854412" from="359727836" to="250854412" numLanes="2" shape="653422.68,4946474.97,0.00 653419.30,4946476.43,0.00 653413.46,4946478.57,0.00 653409.94,4946480.13,0.00 653405.84,4946482.23,0.00" speed="13.89" />
	<edge id="976705482_9038234486_5881314307" from="9038234486" to="5881314307" numLanes="2" shape="653360.23,4946515.44,0.00 653366.12,4946505.05,0.00" speed="16.67" />
	<edge id="32035148_359530578_359727832" from="359530578" to="359727832" numLanes="1" shape="653481.56,4946601.28,0.00 653487.21,4946597.48,0.00 653538.90,4946562.73,0.00" speed="8.33" />
	<edge id="383116022_250854391_359530216" from="250854391" to="359530216" numLanes="1" shape="653295.37,4946586.13,0.00 653298.48,4946590.64,0.00 653303.50,4946597.79,0.00 653322.95,4946625.57,0.00" speed="8.33" />
	<edge id="495295554_255396514_288400573" from="255396514" to="288400573" numLanes="1" shape="652947.98,4946870.49,0.00 652928.56,4946881.25,0.00 652874.56,4946909.87,0.00 652827.30,4946937.88,0.00 652776.23,4946969.76,0.00 652740.56,4946992.37,0.00 652735.12,4946995.78,0.00 652730.91,4946998.42,0.00 652726.80,4947001.00,0.00 652718.18,4947006.58,0.00 652703.50,4947015.30,0.00 652657.80,4947044.33,0.00 652653.54,4947047.25,0.00 652597.85,4947080.08,0.00" speed="13.89" />
	<edge id="976698606_359525496_9038148627" from="359525496" to="9038148627" numLanes="1" shape="653710.80,4947211.94,0.00 653706.51,4947204.90,0.00 653661.87,4947136.78,0.00 653617.04,4947064.24,0.00 653536.82,4946949.27,0.00" speed="8.33" />
	<edge id="976185943_6485921800_6485921797" from="6485921800" to="6485921797" numLanes="1" shape="652983.35,4946694.97,0.00 652987.30,4946691.39,0.00" speed="8.33" />
	<edge id="35847131_359524441_359523577" from="359524441" to="359523577" numLanes="1" shape="653368.19,4946452.77,0.00 653366.97,4946450.99,0.00 653357.45,4946438.13,0.00" speed="13.89" />
	<edge id="486372127_4731177012_3301414211" from="4731177012" to="3301414211" numLanes="1" shape="653199.61,4946788.93,0.00 653246.07,4946758.98,0.00" speed="8.33" />
	<edge id="200445697_359728639_359728637" from="359728639" to="359728637" numLanes="1" shape="653628.92,4946456.12,0.00 653628.62,4946462.08,0.00 653624.13,4946466.66,0.00 653618.75,4946468.63,0.00" speed="13.89" />
	<edge id="622683999_5881241908_359530578" from="5881241908" to="359530578" numLanes="2" shape="653411.74,4946494.14,0.00 653481.56,4946601.28,0.00" speed="13.89" />
	<edge id="26323835_2036822478_1076629757" from="2036822478" to="1076629757" numLanes="2" shape="653063.16,4946770.88,0.00 653065.68,4946771.83,0.00 653070.21,4946775.47,0.00 653073.95,4946781.28,0.00" speed="16.67" />
	<edge id="737507800_3301414198_420524156" from="3301414198" to="420524156" numLanes="1" shape="653223.60,4946689.21,0.00 653215.64,4946676.62,0.00 653213.07,4946671.11,0.00 653210.18,4946666.67,0.00 653207.15,4946661.58,0.00" speed="8.33" />
	<edge id="690163997_250857522_370304526" from="250857522" to="370304526" numLanes="1" shape="652977.55,4946566.40,0.00 652969.75,4946571.47,0.00" speed="13.89" />
	<edge id="174500828_359529731_250854411" from="359529731" to="250854411" numLanes="2" shape="653436.80,4946552.84,0.00 653398.11,4946498.47,0.00 653396.37,4946496.28,0.00 653394.40,4946494.17,0.00 653391.99,4946492.18,0.00" speed="13.89" />
	<edge id="976698606_9038148627_359525496" from="9038148627" to="359525496" numLanes="1" shape="653536.82,4946949.27,0.00 653617.04,4947064.24,0.00 653661.87,4947136.78,0.00 653706.51,4947204.90,0.00 653710.80,4947211.94,0.00" speed="8.33" />
	<edge id="390221189_2023217247_359728414" from="2023217247" to="359728414" numLanes="1" shape="653611.49,4946469.63,0.00 653580.12,4946473.53,0.00" speed="13.89" />
	<edge id="622677479_250854397_5881193114" from="250854397" to="5881193114" numLanes="1" shape="653385.99,4946490.90,0.00 653381.58,4946493.63,0.00 653378.58,4946496.77,0.00 653375.80,4946500.89,0.00 653369.97,4946508.18,0.00 653363.32,4946519.46,0.00" speed="13.89" />
	<edge id="688182342_5851983802_370304526" from="5851983802" to="370304526" numLanes="1" shape="652959.93,4946577.88,0.00 652969.75,4946571.47,0.00" speed="13.89" />
	<edge id="28401360_250857516_250857518" from="250857516" to="250857518" numLanes="1" shape="653368.49,4946307.64,0.00 653294.05,4946351.53,0.00" speed="13.89" />
	<edge id="946531060_5881180818_309131559" from="5881180818" to="309131559" numLanes="2" shape="653398.64,4946464.12,0.00 653401.36,4946465.85,0.00" speed="13.89" />
	<edge id="193166668_6485921797_6483892906" from="6485921797" to="6483892906" numLanes="1" shape="652987.30,4946691.39,0.00 652971.10,4946665.48,0.00 652945.06,4946621.88,0.00" speed="13.89" />
	<edge id="193166663_250854391_420524156" from="250854391" to="420524156" numLanes="2" shape="653295.37,4946586.13,0.00 653207.15,4946661.58,0.00" speed="13.89" />
	<edge id="32047800_359727831_359727829" from="359727831" to="359727829" numLanes="1" shape="653827.89,4946999.62,0.00 653924.89,4947149.27,0.00" speed="13.89" />
	<edge id="976705481_2036822467_9038234486" from="2036822467" to="9038234486" numLanes="2" shape="653080.67,4946760.56,0.00 653204.11,4946655.78,0.00 653292.27,4946580.89,0.00 653315.70,4946562.15,0.00 653334.95,4946542.94,0.00 653350.57,4946527.36,0.00 653360.23,4946515.44,0.00" speed="16.67" />
	<edge id="964314865_8887299551_8919680414" from="8887299551" to="8919680414" numLanes="1" shape="653292.13,4947070.77,0.00 653270.29,4947040.42,0.00 653213.28,4946971.01,0.00" speed="13.89" />
	<edge id="967748229_309131559_250854412" from="309131559" to="250854412" numLanes="2" shape="653401.36,4946465.85,0.00 653404.37,4946469.13,0.00 653406.27,4946473.14,0.00 653406.89,4946477.53,0.00 653405.84,4946482.23,0.00" speed="13.89" />
	<edge id="174500774_359739377_359728414" from="359739377" to="359728414" numLanes="1" shape="653528.96,4946480.08,0.00 653536.22,4946479.15,0.00 653580.12,4946473.53,0.00" speed="13.89" />
	<edge id="964314866_8919680413_8919680414" from="8919680413" to="8919680414" numLanes="1" shape="653196.46,4946948.58,0.00 653193.75,4946951.66,0.00 653192.05,4946955.39,0.00 653191.50,4946959.44,0.00 653192.00,4946962.97,0.00 653193.35,4946966.26,0.00 653195.49,4946969.10,0.00 653197.21,4946970.47,0.00 653198.28,4946971.32,0.00 653201.54,4946972.77,0.00 653205.05,4946973.37,0.00 653208.61,4946973.06,0.00 653211.97,4946971.89,0.00 653213.28,4946971.01,0.00" speed="13.89" />
	<edge id="495295544_1076629793_250854401" from="1076629793" to="250854401" numLanes="2" shape="653385.22,4946464.23,0.00 653386.55,4946463.61,0.00" speed="13.89" />
	<edge id="35847068_359728415_359727835" from="359728415" to="359727835" numLanes="1" shape="653499.61,4946479.45,0.00 653484.51,4946478.34,0.00" speed="13.89" />
	<edge id="193166665_2036822478_2036822467" from="2036822478" to="2036822467" numLanes="1" shape="653063.16,4946770.88,0.00 653070.40,4946766.49,0.00 653080.67,4946760.56,0.00" speed="16.67" />
	<edge id="32047800_359727829_359727831" from="359727829" to="359727831" numLanes="1" shape="653924.89,4947149.27,0.00 653827.89,4946999.62,0.00" speed="13.89" />
	<edge id="495295544_5881193113_288400466" from="5881193113" to="288400466" numLanes="2" shape="653377.34,4946476.91,0.00 653377.47,4946474.48,0.00" speed="13.89" />
	<edge id="32048251_359740556_359731261" from="359740556" to="359731261" numLanes="1" shape="653885.70,4946843.53,0.00 653872.23,4946852.31,0.00" speed="8.33" />
	<edge id="191742019_2023217240_2023217236" from="2023217240" to="2023217236" numLanes="1" shape="653450.55,4946375.59,0.00 653460.80,4946367.40,0.00" speed="13.89" />
	<edge id="390221189_2023217247_359728637" from="2023217247" to="359728637" numLanes="1" shape="653611.49,4946469.63,0.00 653618.75,4946468.63,0.00" speed="13.89" />
	<edge id="23584793_255396514_359731919" from="255396514" to="359731919" numLanes="1" shape="652947.98,4946870.49,0.00 652947.32,4946852.19,0.00 652946.59,4946832.17,0.00" speed="8.33" />
	<edge id="960705969_4731177014_8919680413" from="4731177014" to="8919680413" numLanes="1" shape="653156.69,4946906.05,0.00 653192.58,4946944.90,0.00 653196.46,4946948.58,0.00" speed="13.89" />
	<edge id="174500800_359727628_359727831" from="359727628" to="359727831" numLanes="1" shape="653772.46,4947032.36,0.00 653775.50,4947030.57,0.00 653827.89,4946999.62,0.00" speed="8.33" />
	<edge id="294039091_2976104403_2976099658" from="2976104403" to="2976099658" numLanes="1" shape="653148.79,4946989.45,0.00 653096.67,4947023.15,0.00" speed="8.33" />
	<edge id="32035148_359530751_359727832" from="359530751" to="359727832" numLanes="1" shape="653698.75,4946689.46,0.00 653579.39,4946537.12,0.00 653538.90,4946562.73,0.00" speed="8.33" />
	<edge id="688182344_6452388535_6452388550" from="6452388535" to="6452388550" numLanes="2" shape="652924.42,4946576.73,0.00 652928.26,4946574.91,0.00 652932.46,4946574.26,0.00 652936.67,4946574.85,0.00 652940.52,4946576.63,0.00 652943.70,4946579.45,0.00" speed="13.89" />
	<edge id="174500800_359727831_359727628" from="359727831" to="359727628" numLanes="1" shape="653827.89,4946999.62,0.00 653775.50,4947030.57,0.00 653772.46,4947032.36,0.00" speed="8.33" />
	<edge id="32047907_359726698_359729668" from="359726698" to="359729668" numLanes="1" shape="653645.28,4946869.83,0.00 653656.83,4946861.76,0.00" speed="8.33" />
	<edge id="32047570_359727006_359727005" from="359727006" to="359727005" numLanes="1" shape="653587.14,4946906.37,0.00 653701.27,4947080.34,0.00 653770.22,4947182.37,0.00" speed="8.33" />
	<edge id="294038993_2976099658_2976099656" from="2976099658" to="2976099656" numLanes="1" shape="653096.67,4947023.15,0.00 653024.36,4946938.59,0.00 652951.81,4946999.76,0.00" speed="8.33" />
	<edge id="191742013_359728413_359728414" from="359728413" to="359728414" numLanes="1" shape="653575.97,4946451.98,0.00 653580.12,4946473.53,0.00" speed="13.89" />
	<edge id="32047907_359729669_359729668" from="359729669" to="359729668" numLanes="1" shape="653714.45,4946825.21,0.00 653660.57,4946859.27,0.00 653656.83,4946861.76,0.00" speed="8.33" />
	<edge id="193166664_309131588_2036822513" from="309131588" to="2036822513" numLanes="1" shape="652975.50,4946854.64,0.00 653014.22,4946823.90,0.00" speed="16.67" />
	<edge id="688182784_6452388539_6452388545" from="6452388539" to="6452388545" numLanes="2" shape="652942.60,4946599.22,0.00 652938.50,4946601.97,0.00 652933.71,4946603.20,0.00" speed="13.89" />
	<edge id="323342968_3301414229_3301414461" from="3301414229" to="3301414461" numLanes="1" shape="653286.66,4946819.91,0.00 653235.84,4946853.39,0.00 653172.15,4946895.37,0.00" speed="8.33" />
	<edge id="495295546_2036822497_2036822490" from="2036822497" to="2036822490" numLanes="2" shape="653046.46,4946806.38,0.00 653044.21,4946805.35,0.00 653040.17,4946801.67,0.00 653036.73,4946795.66,0.00 653036.13,4946792.16,0.00" speed="16.67" />
	<edge id="35847068_359727835_359728415" from="359727835" to="359728415" numLanes="1" shape="653484.51,4946478.34,0.00 653499.61,4946479.45,0.00" speed="13.89" />
	<edge id="23195995_250854401_5881180819" from="250854401" to="5881180819" numLanes="1" shape="653386.55,4946463.61,0.00 653388.34,4946458.84,0.00 653389.79,4946454.29,0.00 653392.61,4946443.06,0.00" speed="13.89" />
	<edge id="193166667_1076629771_2036822471" from="1076629771" to="2036822471" numLanes="1" shape="653036.82,4946782.03,0.00 653033.58,4946771.24,0.00 653025.61,4946754.23,0.00" speed="13.89" />
	<edge id="32049158_359740556_359740554" from="359740556" to="359740554" numLanes="1" shape="653885.70,4946843.53,0.00 653892.67,4946832.17,0.00 653890.61,4946813.47,0.00 653873.60,4946787.49,0.00" speed="8.33" />
	<edge id="193166668_6485921797_2036822471" from="6485921797" to="2036822471" numLanes="1" shape="652987.30,4946691.39,0.00 653014.08,4946735.36,0.00 653025.61,4946754.23,0.00" speed="13.89" />
	<edge id="32048251_359740556_359731167" from="359740556" to="359731167" numLanes="1" shape="653885.70,4946843.53,0.00 653937.14,4946918.11,0.00" speed="8.33" />
	<edge id="960705969_8919680413_4731177014" from="8919680413" to="4731177014" numLanes="1" shape="653196.46,4946948.58,0.00 653192.58,4946944.90,0.00 653156.69,4946906.05,0.00" speed="13.89" />
	<edge id="35978053_3301414254_3301414229" from="3301414254" to="3301414229" numLanes="1" shape="653326.53,4946880.36,0.00 653286.66,4946819.91,0.00" speed="8.33" />
	<edge id="688182785_6452388550_6452388549" from="6452388550" to="6452388549" numLanes="2" shape="652943.70,4946579.45,0.00 652945.81,4946582.80,0.00 652946.93,4946586.60,0.00 652946.98,4946590.55,0.00" speed="13.89" />
	<edge id="32047907_359729668_359729669" from="359729668" to="359729669" numLanes="1" shape="653656.83,4946861.76,0.00 653660.57,4946859.27,0.00 653714.45,4946825.21,0.00" speed="8.33" />
	<edge id="35847068_419107929_359727836" from="419107929" to="359727836" numLanes="1" shape="653440.10,4946477.19,0.00 653432.40,4946476.32,0.00 653422.68,4946474.97,0.00" speed="13.89" />
	<edge id="305323800_309131588_255396514" from="309131588" to="255396514" numLanes="1" shape="652975.50,4946854.64,0.00 652961.51,4946863.60,0.00 652947.98,4946870.49,0.00" speed="16.67" />
	<edge id="35847068_419107929_359727835" from="419107929" to="359727835" numLanes="1" shape="653440.10,4946477.19,0.00 653484.51,4946478.34,0.00" speed="13.89" />
	<edge id="35978075_255396514_309133522" from="255396514" to="309133522" numLanes="1" shape="652947.98,4946870.49,0.00 652948.77,4946892.93,0.00 652948.92,4946906.69,0.00" speed="16.67" />
	<edge id="191742014_359728413_2023217247" from="359728413" to="2023217247" numLanes="1" shape="653575.97,4946451.98,0.00 653611.49,4946469.63,0.00" speed="13.89" />
	<edge id="35847131_359523577_250857518" from="359523577" to="250857518" numLanes="1" shape="653357.45,4946438.13,0.00 653298.57,4946357.70,0.00 653297.48,4946356.22,0.00 653294.05,4946351.53,0.00" speed="13.89" />
	<edge id="495295547_1076629771_1786899256" from="1076629771" to="1786899256" numLanes="2" shape="653036.82,4946782.03,0.00 653039.35,4946777.30,0.00 653043.34,4946773.20,0.00" speed="16.67" />
	<edge id="323342968_3301414461_3301414229" from="3301414461" to="3301414229" numLanes="1" shape="653172.15,4946895.37,0.00 653235.84,4946853.39,0.00 653286.66,4946819.91,0.00" speed="8.33" />
	<edge id="32048306_359731919_309131588" from="359731919" to="309131588" numLanes="2" shape="652946.59,4946832.17,0.00 652951.87,4946843.21,0.00 652955.36,4946848.60,0.00 652959.33,4946851.21,0.00 652975.50,4946854.64,0.00" speed="11.11" />
	<edge id="495295544_250854411_250854397" from="250854411" to="250854397" numLanes="2" shape="653391.99,4946492.18,0.00 653388.92,4946491.85,0.00 653385.99,4946490.90,0.00" speed="13.89" />
	<edge id="495295545_2036822466_1076629757" from="2036822466" to="1076629757" numLanes="1" shape="653088.52,4946762.61,0.00 653084.55,4946766.11,0.00 653078.03,4946773.39,0.00 653073.95,4946781.28,0.00" speed="16.67" />
	<edge id="978138010_359726698_359727006" from="359726698" to="359727006" numLanes="2" shape="653645.28,4946869.83,0.00 653639.96,4946873.19,0.00 653587.14,4946906.37,0.00" speed="8.33" />
	<edge id="130070477_359728639_2023217212" from="359728639" to="2023217212" numLanes="1" shape="653628.92,4946456.12,0.00 653601.19,4946384.21,0.00 653548.18,4946246.76,0.00" speed="13.89" />
	<edge id="32035143_359530343_359530578" from="359530343" to="359530578" numLanes="1" shape="653471.92,4946607.75,0.00 653481.56,4946601.28,0.00" speed="8.33" />
	<edge id="622676076_5881180819_309108833" from="5881180819" to="309108833" numLanes="1" shape="653392.61,4946443.06,0.00 653393.14,4946429.66,0.00 653393.39,4946423.26,0.00" speed="13.89" />
	<edge id="35847131_359523577_359524441" from="359523577" to="359524441" numLanes="1" shape="653357.45,4946438.13,0.00 653366.97,4946450.99,0.00 653368.19,4946452.77,0.00" speed="13.89" />
	<edge id="622683999_359530578_359729668" from="359530578" to="359729668" numLanes="2" shape="653481.56,4946601.28,0.00 653656.83,4946861.76,0.00" speed="13.89" />
	<edge id="32048104_359730282_359729959" from="359730282" to="359729959" numLanes="1" shape="653985.41,4947031.25,0.00 653998.58,4947021.39,0.00 653929.22,4946929.55,0.00" speed="8.33" />
	<edge id="323342968_3301414461_4731177014" from="3301414461" to="4731177014" numLanes="1" shape="653172.15,4946895.37,0.00 653160.04,4946903.74,0.00 653156.69,4946906.05,0.00" speed="8.33" />
	<edge id="495295548_2036822498_2036822497" from="2036822498" to="2036822497" numLanes="2" shape="653059.57,4946808.18,0.00 653057.43,4946808.78,0.00 653050.52,4946808.23,0.00 653046.46,4946806.38,0.00" speed="16.67" />
	<edge id="383116022_359530535_9038148626" from="359530535" to="9038148626" numLanes="1" shape="653361.27,4946681.82,0.00 653410.36,4946753.97,0.00 653530.70,4946937.71,0.00" speed="8.33" />
	<edge id="976698608_359726889_9038148627" from="359726889" to="9038148627" numLanes="2" shape="653539.90,4946939.64,0.00 653540.55,4946942.28,0.00 653540.54,4946944.40,0.00 653539.86,4946946.41,0.00 653538.58,4946948.09,0.00 653536.82,4946949.27,0.00" speed="8.33" />
	<edge id="32047804_309131559_359727836" from="309131559" to="359727836" numLanes="2" shape="653401.36,4946465.85,0.00 653415.18,4946471.57,0.00 653422.68,4946474.97,0.00" speed="13.89" />