<connections>
	<connection from="32047570_359727006_359727008" to="32035141_359727008_359530535" />
	<connection from="32047570_359727006_359727008" to="32047570_359727008_359727006" />
	<connection from="32047570_359727006_359727008" to="32035141_359727008_359530343" />
	<connection from="32047800_359727832_359729669" to="32047907_359729669_359729668" />
	<connection from="32047800_359727832_359729669" to="32047907_359729669_359729670" />
	<connection from="32047800_359727832_359729669" to="32047800_359729669_359727831" />
	<connection from="32047800_359727832_359729669" to="32047800_359729669_359727832" />
	<connection from="622683999_5881248335_5881241908" to="622683999_5881241908_359530578" />
	<connection from="193166668_6483892906_6485921797" to="193166668_6485921797_6483892906" />
	<connection from="193166668_6483892906_6485921797" to="193166668_6485921797_2036822471" />
	<connection from="193166668_6483892906_6485921797" to="976185943_6485921797_6485921800" />
	<connection from="976698608_9038148626_359726889" to="976698608_359726889_9038148627" />
	<connection from="35978076_2976099656_309133522" to="35978075_309133522_255396514" />
	<connection from="35978076_2976099656_309133522" to="35978076_309133522_2976099656" />
	<connection from="32047907_359729670_359729669" to="32047907_359729669_359729668" />
	<connection from="32047907_359729670_359729669" to="32047907_359729669_359729670" />
	<connection from="32047907_359729670_359729669" to="32047800_359729669_359727831" />
	<connection from="32047907_359729670_359729669" to="32047800_359729669_359727832" />
	<connection from="23584793_359873981_6485921798" to="23584793_6485921798_2036822451" />
	<connection from="23584793_359873981_6485921798" to="23584793_6485921798_359873981" />
	<connection from="23584793_359873981_6485921798" to="691235181_6485921798_6485921800" />
	<connection from="133896681_359727630_359727631" to="133896681_359727631_359727630" />
	<connection from="32047800_359727835_359727832" to="32047800_359727832_359729669" />
	<connection from="32047800_359727835_359727832" to="32035148_359727832_359530751" />
	<connection from="32047800_359727835_359727832" to="32047800_359727832_359727835" />
	<connection from="32047800_359727835_359727832" to="32035148_359727832_359530578" />
	<connection from="32047800_359729669_359727831" to="32047800_359727831_359727829" />
	<connection from="32047800_359729669_359727831" to="174500800_359727831_359730430" />
	<connection from="32047800_359729669_359727831" to="174500800_359727831_359727628" />
	<connection from="32047800_359729669_359727831" to="32047800_359727831_359729669" />
	<connection from="32047800_359729669_359727832" to="32047800_359727832_359729669" />
	<connection from="32047800_359729669_359727832" to="32035148_359727832_359530751" />
	<connection from="32047800_359729669_359727832" to="32047800_359727832_359727835" />
	<connection from="32047800_359729669_359727832" to="32035148_359727832_359530578" />
	<connection from="174500800_359730430_359729959" to="174500800_359729959_359730430" />
	<connection from="174500800_359730430_359729959" to="174500800_359729959_359731167" />
	<connection from="174500800_359730430_359729959" to="32048104_359729959_359730282" />
	<connection from="294039091_2976104402_2976099658" to="294038993_2976099658_2976099656" />
	<connection from="294039091_2976104402_2976099658" to="294039091_2976099658_2976104402" />
	<connection from="294039091_2976104402_2976099658" to="294039091_2976099658_2976104403" />
	<connection from="32047570_359727005_359727006" to="32047570_359727006_359727008" />
	<connection from="32047570_359727005_359727006" to="976699097_359727006_359726889" />
	<connection from="32047570_359727005_359727006" to="32047570_359727006_359727005" />
	<connection from="200445697_359728637_359728639" to="200445697_359728639_359728637" />
	<connection from="200445697_359728637_359728639" to="130070477_359728639_2023217212" />
	<connection from="174500800_359729959_359731167" to="174500800_359731167_359729959" />
	<connection from="174500800_359729959_359731167" to="32048251_359731167_359740556" />
	<connection from="174500800_359729959_359731167" to="174500800_359731167_359727630" />
	<connection from="28166525_309108833_250854407" to="28166525_250854407_309108833" />
	<connection from="35978076_309133522_2976099656" to="35978076_2976099656_309133522" />
	<connection from="35978076_309133522_2976099656" to="35978076_2976099656_255396512" />
	<connection from="35978076_309133522_2976099656" to="294038993_2976099656_2976099658" />
	<connection from="193166664_2036822513_309131588" to="305323800_309131588_255396514" />
	<connection from="193166664_2036822513_309131588" to="193166664_309131588_2036822513" />
	<connection from="193166664_2036822513_309131588" to="28145240_309131588_309133522" />
	<connection from="35847068_359727835_419107929" to="35847068_419107929_359727836" />
	<connection from="35847068_359727835_419107929" to="35847068_419107929_359727835" />
	<connection from="35847068_359727835_419107929" to="35847142_419107929_5881241908" />
	<connection from="976185943_6485921797_6485921800" to="691235181_6485921800_6485921798" />
	<connection from="976185943_6485921797_6485921800" to="976185943_6485921800_6485921797" />
	<connection from="691235181_6485921798_6485921800" to="691235181_6485921800_6485921798" />
	<connection from="691235181_6485921798_6485921800" to="976185943_6485921800_6485921797" />
	<connection from="323342968_4731177014_3301414461" to="323342968_3301414461_3301414229" />
	<connection from="323342968_4731177014_3301414461" to="323342968_3301414461_4731177014" />
	<connection from="323342968_4731177014_3301414461" to="486372136_3301414461_4789931576" />
	<connection from="35847068_359728415_359739377" to="35847068_359739377_359728415" />
	<connection from="35847068_359728415_359739377" to="174500774_359739377_359728414" />
	<connection from="32048195_359730520_359730430" to="32048195_359730430_359730520" />
	<connection from="32048195_359730520_359730430" to="174500800_359730430_359727831" />
	<connection from="32048195_359730520_359730430" to="174500800_359730430_359729959" />
	<connection from="23584793_6485921798_359873981" to="23584793_359873981_6485921798" />
	<connection from="28401360_250857522_250857518" to="28401360_250857518_250857522" />
	<connection from="28401360_250857522_250857518" to="35847131_250857518_359523577" />
	<connection from="28401360_250857522_250857518" to="28401360_250857518_250857516" />
	<connection from="495295548_1076629757_2036822491" to="193166672_2036822491_420524188" />
	<connection from="495295548_1076629757_2036822491" to="495295548_2036822491_2036822498" />
	<connection from="130070477_2023217212_359728639" to="200445697_359728639_359728637" />
	<connection from="130070477_2023217212_359728639" to="130070477_359728639_2023217212" />
	<connection from="495295547_1786899256_2036822478" to="26323835_2036822478_1076629757" />
	<connection from="495295547_1786899256_2036822478" to="193166665_2036822478_2036822467" />
	<connection from="405724954_2036822451_359874120" to="405724954_359874120_2036822451" />
	<connection from="688182342_370304526_5851983802" to="688182347_5851983802_6452388549" />
	<connection from="688182342_370304526_5851983802" to="688182342_5851983802_370304526" />
	<connection from="622676077_5881180819_5881180818" to="946531060_5881180818_309131559" />
	<connection from="480088113_3301414254_4731177013" to="964314866_4731177013_8919720134" />
	<connection from="480088113_3301414254_4731177013" to="964314866_4731177013_8919680413" />
	<connection from="480088113_3301414254_4731177013" to="480088113_4731177013_3301414254" />
	<connection from="32048104_359729959_359730282" to="32048104_359730282_359729959" />
	<connection from="688182345_6483892906_6452388545" to="691042039_6452388545_6452388533" />
	<connection from="619244002_5851983806_359728130" to="619244002_359728130_5851983806" />
	<connection from="619244002_5851983806_359728130" to="619244002_359728130_2023217236" />
	<connection from="32047570_359727008_359727006" to="32047570_359727006_359727008" />
	<connection from="32047570_359727008_359727006" to="976699097_359727006_359726889" />
	<connection from="32047570_359727008_359727006" to="32047570_359727006_359727005" />
	<connection from="303682518_420524188_2036822498" to="495295548_2036822498_2036822497" />
	<connection from="32035141_359727008_359530535" to="383116022_359530535_9038148626" />
	<connection from="32035141_359727008_359530535" to="32035141_359530535_359727008" />
	<connection from="32035141_359727008_359530535" to="383116022_359530535_359530216" />
	<connection from="193166666_2036822497_2036822513" to="441634595_2036822513_2036822490" />
	<connection from="193166666_2036822497_2036822513" to="193166664_2036822513_309131588" />
	<connection from="964314866_8919720134_8919680414" to="964314866_8919680414_8919720134" />
	<connection from="964314866_8919720134_8919680414" to="964314866_8919680414_8919680413" />
	<connection from="964314866_8919720134_8919680414" to="964314865_8919680414_8887299551" />
	<connection from="35978053_3301414229_3301414254" to="480088113_3301414254_4731177013" />
	<connection from="35978053_3301414229_3301414254" to="35978053_3301414254_3301414229" />
	<connection from="35978076_2976099656_255396512" to="35978076_255396512_2976099656" />
	<connection from="35978053_3301414211_3301414229" to="35978053_3301414229_3301414211" />
	<connection from="35978053_3301414211_3301414229" to="35978053_3301414229_3301414254" />
	<connection from="35978053_3301414211_3301414229" to="323342968_3301414229_3301414461" />
	<connection from="964314866_8919680413_4731177013" to="964314866_4731177013_8919720134" />
	<connection from="964314866_8919680413_4731177013" to="964314866_4731177013_8919680413" />
	<connection from="964314866_8919680413_4731177013" to="480088113_4731177013_3301414254" />
	<connection from="32047800_359727832_359727835" to="35847068_359727835_359728415" />
	<connection from="32047800_359727832_359727835" to="32047800_359727835_359727832" />
	<connection from="32047800_359727832_359727835" to="35847068_359727835_419107929" />
	<connection from="32048251_359731167_359740556" to="32048251_359740556_359731261" />
	<connection from="32048251_359731167_359740556" to="32049158_359740556_359740554" />
	<connection from="32048251_359731167_359740556" to="32048251_359740556_359731167" />
	<connection from="480088113_4731177013_3301414254" to="480088113_3301414254_4731177013" />
	<connection from="480088113_4731177013_3301414254" to="35978053_3301414254_3301414229" />
	<connection from="32035131_359530216_359529731" to="174500828_359529731_250854411" />
	<connection from="32047800_359727831_359729669" to="32047907_359729669_359729668" />
	<connection from="32047800_359727831_359729669" to="32047907_359729669_359729670" />
	<connection from="32047800_359727831_359729669" to="32047800_359729669_359727831" />
	<connection from="32047800_359727831_359729669" to="32047800_359729669_359727832" />
	<connection from="35847026_359728415_2023217240" to="191742019_2023217240_2023217236" />
	<connection from="35847026_359728415_2023217240" to="191742020_2023217240_359728130" />
	<connection from="32033947_288400466_359524441" to="35847131_359524441_359523577" />
	<connection from="174500800_359731167_359729959" to="174500800_359729959_359730430" />
	<connection from="174500800_359731167_359729959" to="174500800_359729959_359731167" />
	<connection from="174500800_359731167_359729959" to="32048104_359729959_359730282" />
	<connection from="133896681_359727631_359727630" to="133896681_359727630_359727631" />
	<connection from="133896681_359727631_359727630" to="174500800_359727630_359731167" />
	<connection from="32035148_359727832_359530751" to="32035148_359530751_359727832" />
	<connection from="622683999_359729668_359727628" to="174500800_359727628_359727831" />
	<connection from="619244002_2023217236_359728130" to="619244002_359728130_5851983806" />
	<connection from="619244002_2023217236_359728130" to="619244002_359728130_2023217236" />
	<connection from="191742012_2023217236_359728413" to="191742013_359728413_359728414" />
	<connection from="191742012_2023217236_359728413" to="191742014_359728413_2023217247" />
	<connection from="737507800_420524156_3301414198" to="737507800_3301414198_420524156" />
	<connection from="486372136_3301414461_4789931576" to="486372136_4789931576_3301414461" />
	<connection from="32047907_359729668_359726698" to="174500828_359726698_359530343" />
	<connection from="32047907_359729668_359726698" to="978138010_359726698_359727006" />
	<connection from="32047907_359729668_359726698" to="32047907_359726698_359729668" />
	<connection from="960705969_420524188_4731177014" to="323342968_4731177014_3301414461" />
	<connection from="960705969_420524188_4731177014" to="960705969_4731177014_8919680413" />
	<connection from="960705969_420524188_4731177014" to="960705969_4731177014_420524188" />
	<connection from="978138011_359727627_359726698" to="174500828_359726698_359530343" />
	<connection from="978138011_359727627_359726698" to="978138010_359726698_359727006" />
	<connection from="978138011_359727627_359726698" to="32047907_359726698_359729668" />
	<connection from="35847081_359727836_250854412" to="495295544_250854412_5881248335" />
	<connection from="976705482_9038234486_5881314307" to="622677478_5881314307_5881193113" />
	<connection from="32035148_359530578_359727832" to="32047800_359727832_359729669" />
	<connection from="32035148_359530578_359727832" to="32035148_359727832_359530751" />
	<connection from="32035148_359530578_359727832" to="32047800_359727832_359727835" />
	<connection from="32035148_359530578_359727832" to="32035148_359727832_359530578" />
	<connection from="383116022_250854391_359530216" to="383116022_359530216_250854391" />
	<connection from="383116022_250854391_359530216" to="383116022_359530216_359530535" />
	<connection from="383116022_250854391_359530216" to="32035131_359530216_359529731" />
	<connection from="495295554_255396514_288400573" to="495295554_288400573_255396514" />
	<connection from="976698606_359525496_9038148627" to="976698606_9038148627_359525496" />
	<connection from="976698606_359525496_9038148627" to="976698608_9038148627_9038148626" />
	<connection from="976185943_6485921800_6485921797" to="193166668_6485921797_6483892906" />
	<connection from="976185943_6485921800_6485921797" to="193166668_6485921797_2036822471" />
	<connection from="976185943_6485921800_6485921797" to="976185943_6485921797_6485921800" />
	<connection from="35847131_359524441_359523577" to="32034113_359523577_309108833" />
	<connection from="35847131_359524441_359523577" to="35847131_359523577_359524441" />
	<connection from="35847131_359524441_359523577" to="35847131_359523577_250857518" />
	<connection from="486372127_4731177012_3301414211" to="35978053_3301414211_3301414229" />
	<connection from="486372127_4731177012_3301414211" to="486372127_3301414211_4731177012" />
	<connection from="200445697_359728639_359728637" to="200445697_359728637_359728639" />
	<connection from="200445697_359728639_359728637" to="390221189_359728637_2023217247" />
	<connection from="622683999_5881241908_359530578" to="622683999_359530578_359729668" />
	<connection from="622683999_5881241908_359530578" to="32035148_359530578_359727832" />
	<connection from="622683999_5881241908_359530578" to="32035143_359530578_359530343" />
	<connection from="26323835_2036822478_1076629757" to="495295548_1076629757_2036822491" />
	<connection from="737507800_3301414198_420524156" to="737507800_420524156_3301414198" />
	<connection from="737507800_3301414198_420524156" to="193166663_420524156_2036822466" />
	<connection from="690163997_250857522_370304526" to="690163997_370304526_250857522" />
	<connection from="690163997_250857522_370304526" to="688182342_370304526_5851983802" />
	<connection from="174500828_359529731_250854411" to="495295544_250854411_250854397" />
	<connection from="976698606_9038148627_359525496" to="976698606_359525496_9038148627" />
	<connection from="390221189_2023217247_359728414" to="174500774_359728414_359739377" />
	<connection from="390221189_2023217247_359728414" to="390221189_359728414_2023217247" />
	<connection from="622677479_250854397_5881193114" to="193166663_5881193114_250854391" />
	<connection from="688182342_5851983802_370304526" to="690163997_370304526_250857522" />
	<connection from="688182342_5851983802_370304526" to="688182342_370304526_5851983802" />
	<connection from="28401360_250857516_250857518" to="28401360_250857518_250857522" />
	<connection from="28401360_250857516_250857518" to="35847131_250857518_359523577" />
	<connection from="28401360_250857516_250857518" to="28401360_250857518_250857516" />
	<connection from="946531060_5881180818_309131559" to="967748229_309131559_250854412" />
	<connection from="946531060_5881180818_309131559" to="32047804_309131559_359727836" />
	<connection from="193166668_6485921797_6483892906" to="688182345_6483892906_6452388545" />
	<connection from="193166668_6485921797_6483892906" to="193166668_6483892906_6485921797" />
	<connection from="193166663_250854391_420524156" to="737507800_420524156_3301414198" />
	<connection from="193166663_250854391_420524156" to="193166663_420524156_2036822466" />
	<connection from="32047800_359727831_359727829" to="32047800_359727829_359727831" />
	<connection from="976705481_2036822467_9038234486" to="976705482_9038234486_5881314307" />
	<connection from="964314865_8887299551_8919680414" to="964314866_8919680414_8919720134" />
	<connection from="964314865_8887299551_8919680414" to="964314866_8919680414_8919680413" />
	<connection from="964314865_8887299551_8919680414" to="964314865_8919680414_8887299551" />
	<connection from="967748229_309131559_250854412" to="495295544_250854412_5881248335" />
	<connection from="174500774_359739377_359728414" to="174500774_359728414_359739377" />
	<connection from="174500774_359739377_359728414" to="390221189_359728414_2023217247" />
	<connection from="964314866_8919680413_8919680414" to="964314866_8919680414_8919720134" />
	<connection from="964314866_8919680413_8919680414" to="964314866_8919680414_8919680413" />
	<connection from="964314866_8919680413_8919680414" to="964314865_8919680414_8887299551" />
	<connection from="495295544_1076629793_250854401" to="23195995_250854401_5881180819" />
	<connection from="495295544_1076629793_250854401" to="967748228_250854401_5881180818" />
	<connection from="35847068_359728415_359727835" to="35847068_359727835_359728415" />
	<connection from="35847068_359728415_359727835" to="32047800_359727835_359727832" />
	<connection from="35847068_359728415_359727835" to="35847068_359727835_419107929" />
	<connection from="193166665_2036822478_2036822467" to="976705481_2036822467_9038234486" />
	<connection from="32047800_359727829_359727831" to="32047800_359727831_359727829" />
	<connection from="32047800_359727829_359727831" to="174500800_359727831_359730430" />
	<connection from="32047800_359727829_359727831" to="174500800_359727831_359727628" />
	<connection from="32047800_359727829_359727831" to="32047800_359727831_359729669" />
	<connection from="495295544_5881193113_288400466" to="495295544_288400466_1076629793" />
	<connection from="495295544_5881193113_288400466" to="32033947_288400466_359524441" />
	<connection from="32048251_359740556_359731261" to="32048251_359731261_359740556" />
	<connection from="191742019_2023217240_2023217236" to="619244002_2023217236_359728130" />
	<connection from="191742019_2023217240_2023217236" to="191742012_2023217236_359728413" />
	<connection from="390221189_2023217247_359728637" to="200445697_359728637_359728639" />
	<connection from="390221189_2023217247_359728637" to="390221189_359728637_2023217247" />
	<connection from="23584793_255396514_359731919" to="32048306_359731919_309131588" />
	<connection from="23584793_255396514_359731919" to="23584793_359731919_2036822451" />
	<connection from="23584793_255396514_359731919" to="23584793_359731919_255396514" />
	<connection from="960705969_4731177014_8919680413" to="964314866_8919680413_8919680414" />
	<connection from="960705969_4731177014_8919680413" to="964314866_8919680413_4731177013" />
	<connection from="960705969_4731177014_8919680413" to="960705969_8919680413_4731177014" />
	<connection from="174500800_359727628_359727831" to="32047800_359727831_359727829" />
	<connection from="174500800_359727628_359727831" to="174500800_359727831_359730430" />
	<connection from="174500800_359727628_359727831" to="174500800_359727831_359727628" />
	<connection from="174500800_359727628_359727831" to="32047800_359727831_359729669" />
	<connection from="294039091_2976104403_2976099658" to="294038993_2976099658_2976099656" />
	<connection from="294039091_2976104403_2976099658" to="294039091_2976099658_2976104402" />
	<connection from="294039091_2976104403_2976099658" to="294039091_2976099658_2976104403" />
	<connection from="32035148_359530751_359727832" to="32047800_359727832_359729669" />
	<connection from="32035148_359530751_359727832" to="32035148_359727832_359530751" />
	<connection from="32035148_359530751_359727832" to="32047800_359727832_359727835" />
	<connection from="32035148_359530751_359727832" to="32035148_359727832_359530578" />
	<connection from="688182344_6452388535_6452388550" to="688182348_6452388550_5851983802" />
	<connection from="688182344_6452388535_6452388550" to="688182785_6452388550_6452388549" />
	<connection from="174500800_359727831_359727628" to="174500800_359727628_359727831" />
	<connection from="32047907_359726698_359729668" to="32047907_359729668_359729669" />
	<connection from="32047907_359726698_359729668" to="622683999_359729668_359727628" />
	<connection from="32047907_359726698_359729668" to="32047907_359729668_359726698" />
	<connection from="32047570_359727006_359727005" to="32047570_359727005_359727006" />
	<connection from="294038993_2976099658_2976099656" to="35978076_2976099656_309133522" />
	<connection from="294038993_2976099658_2976099656" to="35978076_2976099656_255396512" />
	<connection from="294038993_2976099658_2976099656" to="294038993_2976099656_2976099658" />
	<connection from="191742013_359728413_359728414" to="174500774_359728414_359739377" />
	<connection from="191742013_359728413_359728414" to="390221189_359728414_2023217247" />
	<connection from="32047907_359729669_359729668" to="32047907_359729668_359729669" />
	<connection from="32047907_359729669_359729668" to="622683999_359729668_359727628" />
	<connection from="32047907_359729669_359729668" to="32047907_359729668_359726698" />
	<connection from="193166664_309131588_2036822513" to="441634595_2036822513_2036822490" />
	<connection from="193166664_309131588_2036822513" to="193166664_2036822513_309131588" />
	<connection from="688182784_6452388539_6452388545" to="691042039_6452388545_6452388533" />
	<connection from="323342968_3301414229_3301414461" to="323342968_3301414461_3301414229" />
	<connection from="323342968_3301414229_3301414461" to="323342968_3301414461_4731177014" />
	<connection from="323342968_3301414229_3301414461" to="486372136_3301414461_4789931576" />
	<connection from="495295546_2036822497_2036822490" to="495295547_2036822490_1076629771" />
	<connection from="35847068_359727835_359728415" to="35847068_359728415_359727835" />
	<connection from="35847068_359727835_359728415" to="35847068_359728415_359739377" />
	<connection from="35847068_359727835_359728415" to="35847026_359728415_2023217240" />
	<connection from="23195995_250854401_5881180819" to="622676076_5881180819_309108833" />
	<connection from="193166667_1076629771_2036822471" to="193166667_2036822471_1786899256" />
	<connection from="193166667_1076629771_2036822471" to="193166668_2036822471_6485921797" />
	<connection from="32049158_359740556_359740554" to="32049158_359740554_359740556" />
	<connection from="193166668_6485921797_2036822471" to="193166667_2036822471_1786899256" />
	<connection from="193166668_6485921797_2036822471" to="193166668_2036822471_6485921797" />
	<connection from="32048251_359740556_359731167" to="174500800_359731167_359729959" />
	<connection from="32048251_359740556_359731167" to="32048251_359731167_359740556" />
	<connection from="32048251_359740556_359731167" to="174500800_359731167_359727630" />
	<connection from="960705969_8919680413_4731177014" to="323342968_4731177014_3301414461" />
	<connection from="960705969_8919680413_4731177014" to="960705969_4731177014_8919680413" />
	<connection from="960705969_8919680413_4731177014" to="960705969_4731177014_420524188" />
	<connection from="35978053_3301414254_3301414229" to="35978053_3301414229_3301414211" />
	<connection from="35978053_3301414254_3301414229" to="35978053_3301414229_3301414254" />
	<connection from="35978053_3301414254_3301414229" to="323342968_3301414229_3301414461" />
	<connection from="688182785_6452388550_6452388549" to="691042040_6452388549_6452388539" />
	<connection from="32047907_359729668_359729669" to="32047907_359729669_359729668" />
	<connection from="32047907_359729668_359729669" to="32047907_359729669_359729670" />
	<connection from="32047907_359729668_359729669" to="32047800_359729669_359727831" />
	<connection from="32047907_359729668_359729669" to="32047800_359729669_359727832" />
	<connection from="35847068_419107929_359727836" to="35847081_359727836_250854412" />
	<connection from="35847068_419107929_359727836" to="35847068_359727836_419107929" />
	<connection from="305323800_309131588_255396514" to="23584793_255396514_359731919" />
	<connection from="305323800_309131588_255396514" to="495295554_255396514_288400573" />
	<connection from="305323800_309131588_255396514" to="35978075_255396514_309133522" />
	<connection from="305323800_309131588_255396514" to="305323800_255396514_309131588" />
	<connection from="35847068_419107929_359727835" to="35847068_359727835_359728415" />
	<connection from="35847068_419107929_359727835" to="32047800_359727835_359727832" />
	<connection from="35847068_419107929_359727835" to="35847068_359727835_419107929" />
	<connection from="35978075_255396514_309133522" to="35978075_309133522_255396514" />
	<connection from="35978075_255396514_309133522" to="35978076_309133522_2976099656" />
	<connection from="191742014_359728413_2023217247" to="390221189_2023217247_359728637" />
	<connection from="191742014_359728413_2023217247" to="390221189_2023217247_359728414" />
	<connection from="35847131_359523577_250857518" to="28401360_250857518_250857522" />
	<connection from="35847131_359523577_250857518" to="35847131_250857518_359523577" />
	<connection from="35847131_359523577_250857518" to="28401360_250857518_250857516" />
	<connection from="495295547_1076629771_1786899256" to="495295547_1786899256_2036822478" />
	<connection from="323342968_3301414461_3301414229" to="35978053_3301414229_3301414211" />
	<connection from="323342968_3301414461_3301414229" to="35978053_3301414229_3301414254" />
	<connection from="323342968_3301414461_3301414229" to="323342968_3301414229_3301414461" />
	<connection from="32048306_359731919_309131588" to="193166664_309131588_2036822513" />
	<connection from="495295544_250854411_250854397" to="495295544_250854397_5881193113" />
	<connection from="495295544_250854411_250854397" to="622677479_250854397_5881193114" />
	<connection from="495295545_2036822466_1076629757" to="495295548_1076629757_2036822491" />
	<connection from="978138010_359726698_359727006" to="32047570_359727006_359727008" />
	<connection from="978138010_359726698_359727006" to="976699097_359727006_359726889" />
	<connection from="978138010_359726698_359727006" to="32047570_359727006_359727005" />
	<connection from="130070477_359728639_2023217212" to="130070477_2023217212_359728639" />
	<connection from="32035143_359530343_359530578" to="622683999_359530578_359729668" />
	<connection from="32035143_359530343_359530578" to="32035148_359530578_359727832" />
	<connection from="32035143_359530343_359530578" to="32035143_359530578_359530343" />
	<connection from="622676076_5881180819_309108833" to="622676076_309108833_5881180819" />
	<connection from="622676076_5881180819_309108833" to="28166525_309108833_250854407" />
	<connection from="35847131_359523577_359524441" to="35847131_359524441_359523577" />
	<connection from="35847131_359523577_359524441" to="32034491_359524441_1076629793" />
	<connection from="622683999_359530578_359729668" to="32047907_359729668_359729669" />
	<connection from="622683999_359530578_359729668" to="622683999_359729668_359727628" />
	<connection from="622683999_359530578_359729668" to="32047907_359729668_359726698" />
	<connection from="32048104_359730282_359729959" to="174500800_359729959_359730430" />
	<connection from="32048104_359730282_359729959" to="174500800_359729959_359731167" />
	<connection from="32048104_359730282_359729959" to="32048104_359729959_359730282" />
	<connection from="323342968_3301414461_4731177014" to="323342968_4731177014_3301414461" />
	<connection from="323342968_3301414461_4731177014" to="960705969_4731177014_8919680413" />
	<connection from="323342968_3301414461_4731177014" to="960705969_4731177014_420524188" />
	<connection from="495295548_2036822498_2036822497" to="193166666_2036822497_2036822513" />
	<connection from="495295548_2036822498_2036822497" to="495295546_2036822497_2036822490" />
	<connection from="383116022_359530535_9038148626" to="976698608_9038148626_359726889" />
	<connection from="383116022_359530535_9038148626" to="383116022_9038148626_359530535" />
	<connection from="976698608_359726889_9038148627" to="976698606_9038148627_359525496" />
	<connection from="976698608_359726889_9038148627" to="976698608_9038148627_9038148626" />
	<connection from="32047804_309131559_359727836" to="35847068_359727836_419107929" />
	<connection from="32048251_359731261_359740556" to="32048251_359740556_359731261" />