<?xml version="1.0" encoding="UTF-8"?>

<!-- generated on 2022-12-14 09:27:42 by Eclipse SUMO netedit Version 1.15.0
<configuration xmlns:xsi="http://www.w3.org/2001/XMLSchema-instance" xsi:noNamespaceSchemaLocation="http://sumo.dlr.de/xsd/netconvertConfiguration.xsd">

    <input>
        <sumo-net-file value="MASA.net.xml"/>
    </input>

    <output>
        <output-file value="MASA.net.xml"/>
    </output>

    <processing>
        <geometry.min-radius.fix.railways value="false"/>
        <geometry.max-grade.fix value="false"/>
        <offset.disable-normalization value="true"/>
        <lefthand value="0"/>
    </processing>

    <junctions>
        <no-turnarounds value="true"/>
        <junctions.corner-detail value="5"/>
        <junctions.limit-turn-speed value="5.50"/>
        <rectangular-lane-cut value="0"/>
    </junctions>

    <pedestrian>
        <walkingareas value="0"/>
    </pedestrian>

</configuration>
-->

<net version="1.9" junctionCornerDetail="5" limitTurnSpeed="5.50" xmlns:xsi="http://www.w3.org/2001/XMLSchema-instance" xsi:noNamespaceSchemaLocation="http://sumo.dlr.de/xsd/net_file.xsd">

    <location netOffset="-652262.91,-4946309.38" convBoundary="0.00,0.00,1811.42,1125.80" origBoundary="652262.91,4946309.38,654074.32,4947435.17" projParameter="!"/>

    <edge id=":1076629757_0" function="internal">
        <lane id=":1076629757_0_0" index="0" speed="8.11" length="4.91" shape="816.36,465.11 815.69,466.40 815.31,467.35 815.24,468.35 815.47,469.76"/>
    </edge>
    <edge id=":1076629757_1" function="internal">
        <lane id=":1076629757_1_0" index="0" speed="8.33" length="5.31" shape="812.28,464.96 813.34,466.33 814.22,467.21 814.92,468.16 815.47,469.76"/>
        <lane id=":1076629757_1_1" index="1" speed="8.33" length="5.31" shape="809.59,466.69 810.48,467.79 811.25,468.46 811.88,469.19 812.35,470.47"/>
    </edge>
    <edge id=":1076629758_0" function="internal">
        <lane id=":1076629758_0_0" index="0" speed="8.33" length="1.13" shape="817.25,477.56 817.36,478.05 817.40,478.39 817.39,478.74 817.33,479.23"/>
        <lane id=":1076629758_0_1" index="1" speed="8.33" length="1.13" shape="814.13,478.27 814.17,478.44 814.18,478.55 814.18,478.67 814.16,478.83"/>
    </edge>
    <edge id=":1076629761_0" function="internal">
        <lane id=":1076629761_0_0" index="0" speed="8.33" length="1.34" shape="816.46,486.08 816.38,486.67 816.28,487.07 816.11,487.44 815.81,487.96"/>
        <lane id=":1076629761_0_1" index="1" speed="8.33" length="1.34" shape="813.29,485.68 813.26,485.88 813.23,486.01 813.17,486.13 813.07,486.31"/>
    </edge>
    <edge id=":1076629764_0" function="internal">
        <lane id=":1076629764_0_0" index="0" speed="8.33" length="1.12" shape="795.81,504.03 795.33,504.15 794.99,504.21 794.65,504.22 794.15,504.18"/>
        <lane id=":1076629764_0_1" index="1" speed="8.33" length="1.12" shape="794.96,500.94 794.80,500.98 794.68,501.00 794.57,501.01 794.40,500.99"/>
    </edge>
    <edge id=":1076629766_0" function="internal">
        <lane id=":1076629766_0_0" index="0" speed="8.33" length="1.11" shape="787.24,503.63 786.75,503.59 786.41,503.53 786.09,503.42 785.64,503.22"/>
        <lane id=":1076629766_0_1" index="1" speed="8.33" length="1.11" shape="787.49,500.44 787.33,500.43 787.22,500.41 787.11,500.37 786.96,500.31"/>
    </edge>
    <edge id=":1076629767_0" function="internal">
        <lane id=":1076629767_0_0" index="0" speed="8.33" length="1.83" shape="776.77,499.18 778.08,499.53"/>
        <lane id=":1076629767_0_1" index="1" speed="8.33" length="1.83" shape="778.10,496.27 780.23,497.16"/>
    </edge>
    <edge id=":1076629769_0" function="internal">
        <lane id=":1076629769_0_0" index="0" speed="8.33" length="4.00" shape="769.65,488.66 769.93,492.11"/>
        <lane id=":1076629769_0_1" index="1" speed="8.33" length="4.00" shape="772.43,487.07 773.09,491.58"/>
    </edge>
    <edge id=":1076629770_0" function="internal">
        <lane id=":1076629770_0_0" index="0" speed="8.33" length="1.13" shape="767.93,480.28 767.85,479.79 767.82,479.44 767.85,479.10 767.94,478.60"/>
        <lane id=":1076629770_0_1" index="1" speed="8.33" length="1.13" shape="771.08,479.74 771.06,479.58 771.05,479.46 771.06,479.35 771.09,479.18"/>
    </edge>
    <edge id=":1076629771_0" function="internal">
        <lane id=":1076629771_0_0" index="0" speed="6.25" length="5.25" shape="769.69,469.04 769.88,467.52 769.78,466.46 769.42,465.42 768.83,463.98"/>
    </edge>
    <edge id=":1076629771_1" function="internal">
        <lane id=":1076629771_1_0" index="0" speed="8.33" length="4.55" shape="769.69,469.04 770.16,467.69 770.85,466.94 771.68,466.23 772.55,465.03"/>
        <lane id=":1076629771_1_1" index="1" speed="8.33" length="4.55" shape="772.84,469.61 773.25,468.55 773.89,468.00 774.63,467.49 775.37,466.54"/>
    </edge>
    <edge id=":1076629776_0" function="internal">
        <lane id=":1076629776_0_0" index="0" speed="8.33" length="1.12" shape="787.75,455.43 788.21,455.27 788.55,455.19 788.89,455.16 789.38,455.16"/>
        <lane id=":1076629776_0_1" index="1" speed="8.33" length="1.12" shape="788.81,458.45 788.96,458.40 789.08,458.37 789.19,458.36 789.35,458.36"/>
    </edge>
    <edge id=":1076629777_0" function="internal">
        <lane id=":1076629777_0_0" index="0" speed="8.33" length="1.12" shape="796.32,455.22 796.82,455.23 797.16,455.26 797.49,455.35 797.95,455.52"/>
        <lane id=":1076629777_0_1" index="1" speed="8.33" length="1.12" shape="796.29,458.42 796.46,458.42 796.57,458.43 796.68,458.46 796.84,458.52"/>
    </edge>
    <edge id=":1076629780_0" function="internal">
        <lane id=":1076629780_0_0" index="0" speed="8.33" length="1.26" shape="806.56,458.75 805.78,458.71"/>
        <lane id=":1076629780_0_1" index="1" speed="8.33" length="1.26" shape="805.42,461.74 803.77,461.20"/>
    </edge>
    <edge id=":1076629789_0" function="internal">
        <lane id=":1076629789_0_0" index="0" speed="8.33" length="1.09" shape="1110.58,174.37 1110.38,173.93 1110.26,173.62 1110.20,173.29 1110.14,172.81"/>
        <lane id=":1076629789_0_1" index="1" speed="8.33" length="1.09" shape="1113.47,173.00 1113.41,172.86 1113.37,172.75 1113.35,172.64 1113.33,172.48"/>
    </edge>
    <edge id=":1076629791_0" function="internal">
        <lane id=":1076629791_0_0" index="0" speed="8.33" length="0.71" shape="1113.13,156.65 1113.29,156.38 1113.42,156.20 1113.56,156.03 1113.77,155.80"/>
        <lane id=":1076629791_0_1" index="1" speed="8.33" length="0.71" shape="1115.88,158.28 1115.94,158.19 1115.98,158.13 1116.03,158.08 1116.10,158.00"/>
    </edge>
    <edge id=":1076629793_0" function="internal">
        <lane id=":1076629793_0_0" index="0" speed="6.25" length="5.70" shape="1116.39,149.87 1117.65,150.35 1118.98,150.49 1120.40,150.30 1121.89,149.76"/>
    </edge>
    <edge id=":1076629793_1" function="internal">
        <lane id=":1076629793_1_0" index="0" speed="8.33" length="6.51" shape="1116.10,153.21 1117.76,152.08 1118.90,151.31 1120.09,150.63 1121.89,149.76"/>
        <lane id=":1076629793_1_1" index="1" speed="8.33" length="6.51" shape="1117.87,155.88 1119.40,154.83 1120.46,154.11 1121.56,153.48 1123.22,152.67"/>
    </edge>
    <edge id=":1076629794_0" function="internal">
        <lane id=":1076629794_0_0" index="0" speed="8.33" length="1.59" shape="1133.53,148.91 1132.39,148.37"/>
        <lane id=":1076629794_0_1" index="1" speed="8.33" length="1.59" shape="1133.06,152.08 1131.27,151.37"/>
    </edge>
    <edge id=":1076629795_0" function="internal">
        <lane id=":1076629795_0_0" index="0" speed="8.33" length="4.16" shape="1148.44,160.26 1145.79,157.69"/>
        <lane id=":1076629795_0_1" index="1" speed="8.33" length="4.16" shape="1146.09,162.43 1142.90,159.06"/>
    </edge>
    <edge id=":1076629797_0" function="internal">
        <lane id=":1076629797_0_0" index="0" speed="8.33" length="0.61" shape="1148.74,167.49 1148.93,168.09"/>
        <lane id=":1076629797_0_1" index="1" speed="8.33" length="0.61" shape="1145.57,167.94 1145.80,167.39"/>
    </edge>
    <edge id=":1076629799_0" function="internal">
        <lane id=":1076629799_0_0" index="0" speed="8.33" length="1.02" shape="1141.26,183.37 1140.94,183.69 1140.70,183.89 1140.43,184.06 1140.03,184.27"/>
        <lane id=":1076629799_0_1" index="1" speed="8.33" length="1.02" shape="1139.00,181.11 1138.89,181.22 1138.81,181.28 1138.72,181.34 1138.59,181.41"/>
    </edge>
    <edge id=":1076629800_0" function="internal">
        <lane id=":1076629800_0_0" index="0" speed="8.33" length="0.67" shape="1125.51,187.25 1125.21,187.22 1125.01,187.19 1124.81,187.13 1124.53,187.04"/>
        <lane id=":1076629800_0_1" index="1" speed="8.33" length="0.67" shape="1125.85,184.07 1125.75,184.06 1125.68,184.05 1125.62,184.03 1125.52,184.00"/>
    </edge>
    <edge id=":1359262854_0" function="internal">
        <lane id=":1359262854_0_0" index="0" speed="4.17" length="0.49" shape="1121.38,126.22 1121.50,126.14 1121.58,126.07 1121.64,126.00 1121.74,125.89"/>
    </edge>
    <edge id=":1359262856_0" function="internal">
        <lane id=":1359262856_0_0" index="0" speed="13.89" length="0.10" shape="1102.75,142.51 1102.72,142.47"/>
    </edge>
    <edge id=":1359262856_1" function="internal">
        <lane id=":1359262856_1_0" index="0" speed="13.89" length="0.29" shape="1105.29,140.57 1105.45,140.80"/>
    </edge>
    <edge id=":1419841622_0" function="internal">
        <lane id=":1419841622_0_0" index="0" speed="13.89" length="0.31" shape="500.03,232.04 499.74,231.93"/>
    </edge>
    <edge id=":1419841622_1" function="internal">
        <lane id=":1419841622_1_0" index="0" speed="13.89" length="0.25" shape="500.94,228.96 501.17,229.06"/>
    </edge>
    <edge id=":1419841657_0" function="internal">
        <lane id=":1419841657_0_0" index="0" speed="13.89" length="8.01" shape="649.71,268.77 641.83,267.36"/>
    </edge>
    <edge id=":1419841657_1" function="internal">
        <lane id=":1419841657_1_0" index="0" speed="13.89" length="8.40" shape="642.40,264.21 644.90,264.16 646.61,263.35 648.31,262.53 650.82,262.47"/>
        <lane id=":1419841657_1_1" index="1" speed="13.89" length="8.40" shape="642.40,264.21 650.27,265.62"/>
    </edge>
    <edge id=":1419841682_0" function="internal">
        <lane id=":1419841682_0_0" index="0" speed="6.94" length="0.29" shape="677.94,294.25 677.94,293.96"/>
    </edge>
    <edge id=":1419841682_1" function="internal">
        <lane id=":1419841682_1_0" index="0" speed="6.94" length="0.31" shape="681.14,293.92 681.14,294.23"/>
    </edge>
    <edge id=":1419841705_0" function="internal">
        <lane id=":1419841705_0_0" index="0" speed="8.33" length="0.31" shape="838.46,440.73 838.23,440.93"/>
    </edge>
    <edge id=":1419841705_1" function="internal">
        <lane id=":1419841705_1_0" index="0" speed="8.33" length="0.29" shape="836.16,438.49 836.38,438.30"/>
    </edge>
    <edge id=":1476164942_0" function="internal">
        <lane id=":1476164942_0_0" index="0" speed="4.17" length="0.32" shape="1609.85,875.00 1609.89,875.08 1609.91,875.15 1609.92,875.21 1609.94,875.30"/>
    </edge>
    <edge id=":1476164945_0" function="internal">
        <lane id=":1476164945_0_0" index="0" speed="4.17" length="0.44" shape="1610.25,876.94 1610.28,877.07 1610.29,877.16 1610.28,877.25 1610.27,877.38"/>
    </edge>
    <edge id=":1476164946_0" function="internal">
        <lane id=":1476164946_0_0" index="0" speed="4.17" length="0.51" shape="1609.96,880.73 1609.95,880.88 1609.93,880.98 1609.89,881.08 1609.83,881.22"/>
    </edge>
    <edge id=":1476164947_0" function="internal">
        <lane id=":1476164947_0_0" index="0" speed="4.17" length="0.10" shape="1594.30,881.99 1594.26,881.95"/>
    </edge>
    <edge id=":1476164948_0" function="internal">
        <lane id=":1476164948_0_0" index="0" speed="4.17" length="0.43" shape="1609.23,882.57 1609.18,882.69 1609.14,882.76 1609.09,882.84 1609.01,882.94"/>
    </edge>
    <edge id=":1476164949_0" function="internal">
        <lane id=":1476164949_0_0" index="0" speed="4.17" length="0.24" shape="1596.16,883.60 1596.10,883.57 1596.06,883.54 1596.03,883.51 1595.97,883.46"/>
    </edge>
    <edge id=":1476164953_0" function="internal">
        <lane id=":1476164953_0_0" index="0" speed="4.17" length="0.40" shape="1598.36,884.97 1598.25,884.93 1598.17,884.90 1598.10,884.86 1598.00,884.79"/>
    </edge>
    <edge id=":1476164955_0" function="internal">
        <lane id=":1476164955_0_0" index="0" speed="4.17" length="0.72" shape="1603.85,886.17 1603.65,886.22 1603.50,886.24 1603.35,886.23 1603.14,886.19"/>
    </edge>
    <edge id=":1476164978_0" function="internal">
        <lane id=":1476164978_0_0" index="0" speed="13.89" length="0.35" shape="1332.27,1084.79 1332.26,1084.68 1332.25,1084.61 1332.23,1084.54 1332.20,1084.44"/>
    </edge>
    <edge id=":1476164983_0" function="internal">
        <lane id=":1476164983_0_0" index="0" speed="13.89" length="0.20" shape="1332.81,1090.84 1332.82,1090.78 1332.82,1090.74 1332.81,1090.69 1332.81,1090.63"/>
    </edge>
    <edge id=":1476164986_0" function="internal">
        <lane id=":1476164986_0_0" index="0" speed="13.89" length="0.20" shape="1339.64,1096.51 1339.69,1096.47 1339.72,1096.45 1339.75,1096.43 1339.80,1096.39"/>
    </edge>
    <edge id=":1476164989_0" function="internal">
        <lane id=":1476164989_0_0" index="0" speed="13.89" length="0.61" shape="1352.99,1105.06 1352.92,1105.23 1352.87,1105.34 1352.79,1105.44 1352.67,1105.58"/>
    </edge>
    <edge id=":1476164991_0" function="internal">
        <lane id=":1476164991_0_0" index="0" speed="13.89" length="0.48" shape="1354.66,1112.56 1354.52,1112.54 1354.42,1112.54 1354.32,1112.55 1354.18,1112.57"/>
    </edge>
    <edge id=":1476164993_0" function="internal">
        <lane id=":1476164993_0_0" index="0" speed="13.89" length="0.21" shape="1376.30,1118.06 1376.24,1118.05 1376.20,1118.04 1376.16,1118.02 1376.10,1118.00"/>
    </edge>
    <edge id=":1786899256_0" function="internal">
        <lane id=":1786899256_0_0" index="0" speed="6.25" length="7.07" shape="773.74,457.35 775.59,458.38 777.31,458.85 778.90,458.77 780.35,458.14"/>
    </edge>
    <edge id=":1786899256_1" function="internal">
        <lane id=":1786899256_1_0" index="0" speed="8.33" length="7.53" shape="774.34,463.20 775.97,461.52 777.14,460.42 778.41,459.44 780.35,458.14"/>
        <lane id=":1786899256_1_1" index="1" speed="8.33" length="7.53" shape="776.64,465.43 778.12,463.90 779.18,462.89 780.34,462.00 782.10,460.81"/>
    </edge>
    <edge id=":1786899257_0" function="internal">
        <lane id=":1786899257_0_0" index="0" speed="8.33" length="0.54" shape="808.74,498.34 808.56,498.51 808.43,498.61 808.30,498.71 808.09,498.84"/>
        <lane id=":1786899257_0_1" index="1" speed="8.33" length="0.54" shape="806.58,495.98 806.52,496.04 806.48,496.07 806.43,496.10 806.36,496.15"/>
    </edge>
    <edge id=":1786899260_0" function="internal">
        <lane id=":1786899260_0_0" index="0" speed="6.94" length="0.31" shape="1105.56,839.96 1105.34,839.74"/>
    </edge>
    <edge id=":1786899260_1" function="internal">
        <lane id=":1786899260_1_0" index="0" speed="6.94" length="0.23" shape="1107.65,837.53 1107.81,837.69"/>
    </edge>
    <edge id=":2023217239_0" function="internal">
        <lane id=":2023217239_0_0" index="0" speed="13.89" length="0.13" shape="1000.15,62.21 1000.04,62.28"/>
    </edge>
    <edge id=":2023217239_1" function="internal">
        <lane id=":2023217239_1_0" index="0" speed="13.89" length="0.39" shape="998.21,59.66 998.53,59.46"/>
    </edge>
    <edge id=":2032810861_0" function="internal">
        <lane id=":2032810861_0_0" index="0" speed="4.17" length="0.83" shape="1291.98,1010.49 1292.56,1009.89"/>
    </edge>
    <edge id=":2032810861_1" function="internal">
        <lane id=":2032810861_1_0" index="0" speed="4.17" length="0.29" shape="1290.30,1007.62 1290.15,1007.87"/>
    </edge>
    <edge id=":2036365615_0" function="internal">
        <lane id=":2036365615_0_0" index="0" speed="13.89" length="0.74" shape="1033.38,47.91 1033.81,48.51"/>
    </edge>
    <edge id=":2036365615_1" function="internal">
        <lane id=":2036365615_1_0" index="0" speed="13.89" length="0.73" shape="1036.39,46.62 1035.96,46.03"/>
    </edge>
    <edge id=":2036822385_0" function="internal">
        <lane id=":2036822385_0_0" index="0" speed="13.89" length="0.10" shape="985.87,72.23 985.87,72.23"/>
    </edge>
    <edge id=":2036822385_1" function="internal">
        <lane id=":2036822385_1_0" index="0" speed="13.89" length="0.10" shape="984.03,69.61 984.03,69.61"/>
    </edge>
    <edge id=":2036822398_0" function="internal">
        <lane id=":2036822398_0_0" index="0" speed="4.17" length="0.29" shape="1166.26,250.17 1166.02,250.33"/>
    </edge>
    <edge id=":2036822398_1" function="internal">
        <lane id=":2036822398_1_0" index="0" speed="4.17" length="0.31" shape="1164.29,247.63 1164.55,247.47"/>
    </edge>
    <edge id=":2036822401_0" function="internal">
        <lane id=":2036822401_0_0" index="0" speed="13.89" length="0.31" shape="554.15,250.01 553.85,249.93"/>
    </edge>
    <edge id=":2036822401_1" function="internal">
        <lane id=":2036822401_1_0" index="0" speed="13.89" length="0.10" shape="554.77,246.87 554.88,246.90"/>
    </edge>
    <edge id=":2036822403_0" function="internal">
        <lane id=":2036822403_0_0" index="0" speed="4.17" length="0.19" shape="1034.38,282.34 1034.35,282.29 1034.32,282.26 1034.30,282.23 1034.26,282.18"/>
    </edge>
    <edge id=":2036822403_1" function="internal">
        <lane id=":2036822403_1_0" index="0" speed="4.17" length="0.58" shape="1036.64,280.05 1036.76,280.17 1036.83,280.27 1036.90,280.36 1037.00,280.50"/>
    </edge>
    <edge id=":2036822404_0" function="internal">
        <lane id=":2036822404_0_0" index="0" speed="6.94" length="0.31" shape="677.87,287.33 677.87,287.02"/>
    </edge>
    <edge id=":2036822404_1" function="internal">
        <lane id=":2036822404_1_0" index="0" speed="6.94" length="0.22" shape="681.07,287.08 681.07,287.29"/>
    </edge>
    <edge id=":2036822414_0" function="internal">
        <lane id=":2036822414_0_0" index="0" speed="4.17" length="0.30" shape="946.01,358.29 945.85,358.04"/>
    </edge>
    <edge id=":2036822414_1" function="internal">
        <lane id=":2036822414_1_0" index="0" speed="4.17" length="0.30" shape="948.53,356.29 948.69,356.54"/>
    </edge>
    <edge id=":2036822451_0" function="internal">
        <lane id=":2036822451_0_0" index="0" speed="5.55" length="11.68" shape="678.16,430.78 677.62,428.40 676.20,426.23 673.91,424.26 670.74,422.51"/>
    </edge>
    <edge id=":2036822451_1" function="internal">
        <lane id=":2036822451_1_0" index="0" speed="6.94" length="14.96" shape="678.16,430.78 678.03,415.83"/>
    </edge>
    <edge id=":2036822451_2" function="internal">
        <lane id=":2036822451_2_0" index="0" speed="3.65" length="1.44" shape="678.16,430.78 678.91,429.55"/>
    </edge>
    <edge id=":2036822451_9" function="internal">
        <lane id=":2036822451_9_0" index="0" speed="3.65" length="3.23" shape="678.91,429.55 679.70,429.12 680.51,429.48 681.36,430.65"/>
    </edge>
    <edge id=":2036822451_3" function="internal">
        <lane id=":2036822451_3_0" index="0" speed="6.94" length="14.78" shape="681.23,415.87 681.36,430.65"/>
    </edge>
    <edge id=":2036822451_4" function="internal">
        <lane id=":2036822451_4_0" index="0" speed="5.55" length="4.46" shape="681.23,415.87 680.56,420.28"/>
    </edge>
    <edge id=":2036822451_5" function="internal">
        <lane id=":2036822451_5_0" index="0" speed="3.65" length="1.44" shape="681.23,415.87 680.41,417.06"/>
    </edge>
    <edge id=":2036822451_10" function="internal">
        <lane id=":2036822451_10_0" index="0" speed="5.55" length="11.65" shape="680.56,420.28 680.51,420.55 678.53,423.21 675.27,423.87 670.74,422.51"/>
    </edge>
    <edge id=":2036822451_11" function="internal">
        <lane id=":2036822451_11_0" index="0" speed="3.65" length="3.23" shape="680.41,417.06 679.60,417.45 678.81,417.04 678.03,415.83"/>
    </edge>
    <edge id=":2036822451_6" function="internal">
        <lane id=":2036822451_6_0" index="0" speed="5.55" length="9.15" shape="672.07,419.60 674.64,420.37 676.50,420.00 677.62,418.48 678.03,415.83"/>
    </edge>
    <edge id=":2036822451_7" function="internal">
        <lane id=":2036822451_7_0" index="0" speed="5.55" length="15.20" shape="672.07,419.60 676.03,421.83 678.89,424.42 680.67,427.36 681.36,430.65"/>
    </edge>
    <edge id=":2036822451_8" function="internal">
        <lane id=":2036822451_8_0" index="0" speed="3.65" length="4.67" shape="672.07,419.60 672.83,420.83 672.86,421.72 672.16,422.28 670.74,422.51"/>
    </edge>
    <edge id=":2036822466_0" function="internal">
        <lane id=":2036822466_0_0" index="0" speed="8.00" length="4.32" shape="826.04,451.23 825.06,452.05 824.47,452.72 824.09,453.52 823.76,454.75"/>
    </edge>
    <edge id=":2036822466_1" function="internal">
        <lane id=":2036822466_1_0" index="0" speed="3.65" length="4.67" shape="826.04,451.23 824.60,451.36 823.79,450.99 823.60,450.11 824.03,448.74"/>
    </edge>
    <edge id=":2036822466_2" function="internal">
        <lane id=":2036822466_2_0" index="0" speed="7.24" length="4.29" shape="820.10,449.96 821.36,450.02 822.24,449.89 823.03,449.50 824.03,448.74"/>
    </edge>
    <edge id=":2036822466_3" function="internal">
        <lane id=":2036822466_3_0" index="0" speed="5.59" length="7.14" shape="820.10,449.96 822.10,450.39 823.37,451.33 823.93,452.78 823.76,454.75"/>
    </edge>
    <edge id=":2036822467_0" function="internal">
        <lane id=":2036822467_0_0" index="0" speed="8.33" length="0.94" shape="816.98,449.99 817.23,449.86 817.41,449.80 817.60,449.78 817.88,449.79"/>
    </edge>
    <edge id=":2036822471_0" function="internal">
        <lane id=":2036822471_0_0" index="0" speed="4.17" length="3.56" shape="766.13,457.03 765.74,456.05 765.42,455.39 765.04,454.78 764.42,453.92"/>
    </edge>
    <edge id=":2036822471_1" function="internal">
        <lane id=":2036822471_1_0" index="0" speed="4.17" length="8.23" shape="766.13,457.03 765.39,454.41 765.71,453.12 767.09,453.15 769.54,454.51"/>
    </edge>
    <edge id=":2036822471_2" function="internal">
        <lane id=":2036822471_2_0" index="0" speed="4.17" length="3.55" shape="767.02,452.06 767.64,452.90 768.12,453.45 768.68,453.91 769.54,454.51"/>
    </edge>
    <edge id=":2036822471_3" function="internal">
        <lane id=":2036822471_3_0" index="0" speed="3.65" length="4.67" shape="767.02,452.06 767.07,453.50 766.66,454.29 765.77,454.43 764.42,453.92"/>
    </edge>
    <edge id=":2036822473_0" function="internal">
        <lane id=":2036822473_0_0" index="0" speed="8.33" length="0.80" shape="807.40,455.31 806.71,455.72"/>
    </edge>
    <edge id=":2036822475_0" function="internal">
        <lane id=":2036822475_0_0" index="0" speed="8.33" length="0.80" shape="823.21,457.10 823.15,457.33 823.09,457.48 823.00,457.62 822.84,457.80"/>
    </edge>
    <edge id=":2036822478_0" function="internal">
        <lane id=":2036822478_0_0" index="0" speed="7.77" length="6.51" shape="801.05,456.67 802.38,456.95 803.86,456.83 805.47,456.32 807.23,455.41"/>
    </edge>
    <edge id=":2036822478_1" function="internal">
        <lane id=":2036822478_1_0" index="0" speed="8.33" length="5.68" shape="801.05,456.67 806.37,458.68"/>
        <lane id=":2036822478_1_1" index="1" speed="8.33" length="5.68" shape="799.93,459.67 805.24,461.67"/>
    </edge>
    <edge id=":2036822479_0" function="internal">
        <lane id=":2036822479_0_0" index="0" speed="8.33" length="0.30" shape="782.28,457.36 782.57,457.26"/>
        <lane id=":2036822479_0_1" index="1" speed="8.33" length="0.30" shape="783.36,460.37 783.63,460.27"/>
    </edge>
    <edge id=":2036822480_0" function="internal">
        <lane id=":2036822480_0_0" index="0" speed="8.33" length="0.10" shape="816.59,464.77 816.54,464.76"/>
    </edge>
    <edge id=":2036822490_0" function="internal">
        <lane id=":2036822490_0_0" index="0" speed="8.33" length="7.73" shape="769.90,491.91 768.62,484.29"/>
        <lane id=":2036822490_0_1" index="1" speed="8.33" length="7.73" shape="773.06,491.38 771.77,483.75"/>
    </edge>
    <edge id=":2036822490_2" function="internal">
        <lane id=":2036822490_2_0" index="0" speed="8.33" length="10.93" shape="767.08,494.89 768.17,492.00 768.84,489.81 769.00,487.51 768.62,484.29"/>
    </edge>
    <edge id=":2036822491_0" function="internal">
        <lane id=":2036822491_0_0" index="0" speed="7.63" length="5.40" shape="813.24,492.22 812.54,493.61 812.32,494.69 812.43,495.82 812.71,497.40"/>
    </edge>
    <edge id=":2036822491_1" function="internal">
        <lane id=":2036822491_1_0" index="0" speed="8.33" length="5.04" shape="813.24,492.22 810.63,496.53"/>
        <lane id=":2036822491_1_1" index="1" speed="8.33" length="5.04" shape="810.50,490.57 807.89,494.88"/>
    </edge>
    <edge id=":2036822494_0" function="internal">
        <lane id=":2036822494_0_0" index="0" speed="8.33" length="2.61" shape="810.53,496.70 811.88,494.47"/>
        <lane id=":2036822494_0_1" index="1" speed="8.33" length="2.61" shape="807.79,495.05 809.14,492.82"/>
    </edge>
    <edge id=":2036822495_0" function="internal">
        <lane id=":2036822495_0_0" index="0" speed="8.33" length="2.86" shape="767.90,492.37 767.01,495.08"/>
    </edge>
    <edge id=":2036822496_0" function="internal">
        <lane id=":2036822496_0_0" index="0" speed="6.94" length="2.42" shape="812.74,497.60 812.36,495.21"/>
    </edge>
    <edge id=":2036822497_0" function="internal">
        <lane id=":2036822497_0_0" index="0" speed="8.32" length="6.34" shape="781.52,501.35 780.32,501.03 778.90,501.02 777.24,501.32 775.35,501.95"/>
    </edge>
    <edge id=":2036822497_1" function="internal">
        <lane id=":2036822497_1_0" index="0" speed="8.33" length="5.01" shape="781.52,501.35 776.95,499.26"/>
        <lane id=":2036822497_1_1" index="1" speed="8.33" length="5.01" shape="782.84,498.44 778.29,496.36"/>
    </edge>
    <edge id=":2036822498_0" function="internal">
        <lane id=":2036822498_0_0" index="0" speed="7.63" length="7.55" shape="802.63,506.67 800.82,505.19 799.10,504.25 797.46,503.85 795.90,504.00"/>
    </edge>
    <edge id=":2036822498_1" function="internal">
        <lane id=":2036822498_1_0" index="0" speed="8.33" length="7.43" shape="803.06,502.03 795.90,504.00"/>
        <lane id=":2036822498_1_1" index="1" speed="8.33" length="7.43" shape="802.21,498.94 795.05,500.92"/>
    </edge>
    <edge id=":2036822499_0" function="internal">
        <lane id=":2036822499_0_0" index="0" speed="8.33" length="1.96" shape="775.17,502.02 776.88,501.07"/>
    </edge>
    <edge id=":2036822502_0" function="internal">
        <lane id=":2036822502_0_0" index="0" speed="6.94" length="0.16" shape="813.45,502.06 813.45,502.11 813.46,502.14 813.47,502.17 813.48,502.22"/>
    </edge>
    <edge id=":2036822505_0" function="internal">
        <lane id=":2036822505_0_0" index="0" speed="8.33" length="0.29" shape="760.04,501.53 760.22,501.31"/>
    </edge>
    <edge id=":2036822510_0" function="internal">
        <lane id=":2036822510_0_0" index="0" speed="6.94" length="0.22" shape="803.92,507.87 803.86,507.83 803.83,507.80 803.80,507.77 803.75,507.73"/>
    </edge>
    <edge id=":2036822512_0" function="internal">
        <lane id=":2036822512_0_0" index="0" speed="8.33" length="0.56" shape="766.25,508.11 766.74,507.82"/>
    </edge>
    <edge id=":2036822513_0" function="internal">
        <lane id=":2036822513_0_0" index="0" speed="8.33" length="3.33" shape="753.64,515.07 752.78,515.56 752.20,515.91 751.65,516.31 750.88,516.92"/>
    </edge>
    <edge id=":2036822513_1" function="internal">
        <lane id=":2036822513_1_0" index="0" speed="5.34" length="11.00" shape="753.64,515.07 750.12,516.75 748.55,516.82 748.93,515.27 751.26,512.10"/>
    </edge>
    <edge id=":2036822513_2" function="internal">
        <lane id=":2036822513_2_0" index="0" speed="8.33" length="3.33" shape="748.89,514.42 749.66,513.80 750.16,513.35 750.63,512.85 751.26,512.10"/>
    </edge>
    <edge id=":2036822513_3" function="internal">
        <lane id=":2036822513_3_0" index="0" speed="3.65" length="4.67" shape="748.89,514.42 750.33,514.30 751.14,514.67 751.32,515.55 750.88,516.92"/>
    </edge>
    <edge id=":2036822528_0" function="internal">
        <lane id=":2036822528_0_0" index="0" speed="6.94" length="0.30" shape="682.83,543.03 682.82,542.73"/>
    </edge>
    <edge id=":2036822528_1" function="internal">
        <lane id=":2036822528_1_0" index="0" speed="6.94" length="0.30" shape="686.01,542.61 686.02,542.91"/>
    </edge>
    <edge id=":2036822540_0" function="internal">
        <lane id=":2036822540_0_0" index="0" speed="8.33" length="0.47" shape="699.59,555.48 699.48,555.56 699.40,555.61 699.31,555.65 699.19,555.72"/>
    </edge>
    <edge id=":2036822540_1" function="internal">
        <lane id=":2036822540_1_0" index="0" speed="8.33" length="0.16" shape="697.73,552.87 697.77,552.84 697.80,552.83 697.83,552.81 697.87,552.79"/>
    </edge>
    <edge id=":2036822548_0" function="internal">
        <lane id=":2036822548_0_0" index="0" speed="6.94" length="0.31" shape="666.56,573.20 666.28,573.35"/>
    </edge>
    <edge id=":2036822548_1" function="internal">
        <lane id=":2036822548_1_0" index="0" speed="6.94" length="0.25" shape="664.79,570.52 665.01,570.40"/>
    </edge>
    <edge id=":2036822551_0" function="internal">
        <lane id=":2036822551_0_0" index="0" speed="8.33" length="0.23" shape="684.26,583.70 684.26,583.47"/>
    </edge>
    <edge id=":2036822551_1" function="internal">
        <lane id=":2036822551_1_0" index="0" speed="8.33" length="0.31" shape="687.45,583.36 687.46,583.67"/>
    </edge>