<?xml version="1.0" encoding="UTF-8"?>

<!-- generated on 2022-12-14 09:44:07 by Eclipse SUMO netedit Version 1.15.0
-->

<additional xmlns:xsi="http://www.w3.org/2001/XMLSchema-instance" xsi:noNamespaceSchemaLocation="http://sumo.dlr.de/xsd/additional_file.xsd">
    <!-- Detectors -->
    <laneAreaDetector id="e2_0" lane="4_0" pos="67.73" length="15.00" period="300.00" file="e2_5000.xml"/>
</additional>
