<routes xmlns:xsi="http://www.w3.org/2001/XMLSchema-instance" xsi:noNamespaceSchemaLocation="http://sumo.dlr.de/xsd/routes_file.xsd">
    <vType id="car" vClass="passenger" />
    <vType id="bicycle" vClass="bicycle" />
    <trip id="4196_0" depart="18442.00" from="256" to="410" type="car" />
    <trip id="909_0" depart="19536.00" from="389" to="153" type="car" />
    <trip id="8599_0" depart="20025.00" from="361" to="53" type="car" />
    <trip id="3295_0" depart="20760.00" from="111" to="374" type="car" />
    <trip id="8332_0" depart="20853.00" from="267" to="627" type="car" />
    <trip id="9394_0" depart="21122.00" from="462" to="377" type="car" />
    <trip id="6145_0" depart="21141.00" from="217" to="268" type="car" />
    <trip id="8243_0" depart="21143.00" from="483" to="500" type="car" />
    <trip id="2770_0" depart="21216.00" from="61" to="5" type="car" />
    <trip id="281_0" depart="21225.00" from="341" to="435" type="car" />
    <trip id="8116_0" depart="21500.00" from="455" to="4" type="car" />
    <trip id="6325_0" depart="21512.00" from="335" to="360" type="car" />
    <trip id="1602_0" depart="21577.00" from="362" to="270" type="car" />
    <trip id="3373_0" depart="21674.00" from="99" to="91" type="car" />
    <trip id="1662_0" depart="21688.00" from="110" to="527" type="car" />
    <trip id="6670_0" depart="21958.00" from="268" to="147" type="car" />
    <trip id="6685_0" depart="21963.00" from="238" to="50" type="car" />
    <trip id="8433_0" depart="22001.00" from="154" to="449" type="car" />
    <trip id="5147_0" depart="22114.00" from="340" to="329" type="car" />
    <trip id="6631_0" depart="22144.00" from="25" to="128" type="car" />
    <trip id="9593_0" depart="22183.00" from="454" to="327" type="car" />
    <trip id="7005_0" depart="22191.00" from="408" to="304" type="car" />
    <trip id="8673_0" depart="22222.00" from="26" to="593" type="car" />
    <trip id="360_0" depart="22256.00" from="434" to="409" type="car" />
    <trip id="4983_0" depart="22325.00" from="310" to="243" type="car" />
    <trip id="856_0" depart="22329.00" from="8" to="2" type="car" />
    <trip id="5401_0" depart="22375.00" from="280" to="497" type="car" />
    <trip id="3337_0" depart="22385.00" from="620" to="435" type="car" />
    <trip id="8317_0" depart="22431.00" from="433" to="484" type="car" />
    <trip id="6856_0" depart="22436.00" from="202" to="239" type="car" />
    <trip id="9442_0" depart="22456.00" from="530" to="14" type="car" />
    <trip id="784_0" depart="22463.00" from="291" to="518" type="car" />
    <trip id="8941_0" depart="22469.00" from="408" to="89" type="car" />
    <trip id="2723_0" depart="22472.00" from="293" to="339" type="car" />
    <trip id="3628_0" depart="22574.00" from="365" to="492" type="car" />
    <trip id="8217_0" depart="22606.00" from="385" to="541" type="car" />
    <trip id="5843_0" depart="22612.00" from="588" to="328" type="car" />
    <trip id="7809_0" depart="22677.00" from="27" to="56" type="car" />
    <trip id="5423_0" depart="22684.00" from="23" to="482" type="car" />
    <trip id="1202_0" depart="22757.00" from="305" to="56" type="car" />
    <trip id="1115_0" depart="22766.00" from="128" to="250" type="car" />
    <trip id="6834_0" depart="22808.00" from="47" to="562" type="car" />
    <trip id="9785_0" depart="22905.00" from="365" to="135" type="car" />
    <trip id="3323_0" depart="22913.00" from="143" to="149" type="car" />
    <trip id="8962_0" depart="23052.00" from="383" to="75" type="car" />
    <trip id="16_0" depart="23098.00" from="395" to="606" type="car" />
    <trip id="9784_0" depart="23098.00" from="578" to="261" type="car" />
    <trip id="5345_0" depart="23101.00" from="150" to="230" type="car" />
    <trip id="3872_0" depart="23131.00" from="223" to="611" type="car" />
    <trip id="2154_0" depart="23143.00" from="78" to="436" type="car" />
    <trip id="2384_0" depart="23162.00" from="379" to="12" type="car" />
    <trip id="8022_0" depart="23180.00" from="360" to="342" type="car" />
    <trip id="6587_0" depart="23187.00" from="219" to="479" type="car" />
    <trip id="5503_0" depart="23227.00" from="379" to="492" type="car" />
    <trip id="9174_0" depart="23227.00" from="51" to="617" type="car" />
    <trip id="7825_0" depart="23229.00" from="517" to="215" type="car" />
    <trip id="7854_0" depart="23238.00" from="328" to="511" type="car" />
    <trip id="8863_0" depart="23250.00" from="407" to="581" type="car" />
    <trip id="4988_0" depart="23279.00" from="161" to="125" type="car" />
    <trip id="7206_0" depart="23331.00" from="555" to="141" type="car" />
    <trip id="4767_0" depart="23352.00" from="427" to="339" type="car" />
    <trip id="6792_0" depart="23375.00" from="586" to="433" type="car" />
    <trip id="106_0" depart="23406.00" from="505" to="324" type="car" />
    <trip id="862_0" depart="23439.00" from="201" to="597" type="car" />
    <trip id="4892_0" depart="23444.00" from="220" to="232" type="car" />
    <trip id="7137_0" depart="23452.00" from="197" to="120" type="car" />
    <trip id="5091_0" depart="23455.00" from="464" to="298" type="car" />
    <trip id="4895_0" depart="23467.00" from="68" to="474" type="car" />
    <trip id="1695_0" depart="23476.00" from="59" to="513" type="car" />
    <trip id="1358_0" depart="23479.00" from="581" to="190" type="car" />
    <trip id="745_0" depart="23542.00" from="289" to="208" type="car" />
    <trip id="9543_0" depart="23544.00" from="189" to="279" type="car" />
    <trip id="3884_0" depart="23597.00" from="122" to="447" type="car" />
    <trip id="2965_0" depart="23603.00" from="574" to="534" type="car" />
    <trip id="5058_0" depart="23608.00" from="135" to="337" type="car" />
    <trip id="2828_0" depart="23613.00" from="518" to="173" type="car" />
    <trip id="6823_0" depart="23629.00" from="502" to="367" type="car" />
    <trip id="3585_0" depart="23662.00" from="325" to="420" type="car" />
    <trip id="402_0" depart="23717.00" from="349" to="89" type="car" />
    <trip id="3157_0" depart="23730.00" from="401" to="563" type="car" />
    <trip id="3526_0" depart="23742.00" from="467" to="436" type="car" />
    <trip id="8047_0" depart="23748.00" from="452" to="51" type="car" />
    <trip id="9256_0" depart="23752.00" from="116" to="597" type="car" />
    <trip id="2544_0" depart="23765.00" from="616" to="426" type="car" />
    <trip id="3361_0" depart="23768.00" from="531" to="277" type="car" />
    <trip id="9787_0" depart="23775.00" from="67" to="595" type="car" />
    <trip id="5456_0" depart="23779.00" from="575" to="529" type="car" />
    <trip id="4013_0" depart="23792.00" from="544" to="234" type="car" />
    <trip id="2731_0" depart="23794.00" from="369" to="628" type="car" />
    <trip id="9663_0" depart="23804.00" from="359" to="136" type="car" />
    <trip id="4246_0" depart="23806.00" from="614" to="344" type="car" />
    <trip id="763_0" depart="23824.00" from="434" to="11" type="car" />
    <trip id="5892_0" depart="23827.00" from="129" to="62" type="car" />
    <trip id="84_0" depart="23862.00" from="452" to="467" type="car" />
    <trip id="3492_0" depart="23869.00" from="348" to="539" type="car" />
    <trip id="7231_0" depart="23874.00" from="526" to="503" type="car" />
    <trip id="3256_0" depart="23875.00" from="192" to="545" type="car" />
    <trip id="3838_0" depart="23880.00" from="345" to="447" type="car" />
    <trip id="7997_0" depart="23884.00" from="186" to="551" type="car" />
    <trip id="1568_0" depart="23908.00" from="396" to="152" type="car" />
    <trip id="7390_0" depart="23915.00" from="229" to="629" type="car" />
    <trip id="4222_0" depart="23928.00" from="27" to="374" type="car" />
    <trip id="1261_0" depart="23930.00" from="170" to="251" type="car" />
    <trip id="4562_0" depart="23930.00" from="282" to="182" type="car" />
    <trip id="9735_0" depart="23932.00" from="618" to="124" type="car" />
    <trip id="4319_0" depart="23939.00" from="335" to="105" type="car" />
    <trip id="4462_0" depart="23950.00" from="18" to="541" type="car" />
    <trip id="28_0" depart="23951.00" from="277" to="22" type="car" />
    <trip id="7720_0" depart="23953.00" from="438" to="451" type="car" />
    <trip id="4178_0" depart="23983.00" from="196" to="133" type="car" />
    <trip id="9425_0" depart="24002.00" from="367" to="499" type="car" />
    <trip id="7594_0" depart="24006.00" from="170" to="510" type="car" />
    <trip id="5723_0" depart="24025.00" from="427" to="170" type="car" />
    <trip id="6885_0" depart="24028.00" from="446" to="309" type="car" />
    <trip id="2313_0" depart="24037.00" from="16" to="592" type="car" />
    <trip id="7787_0" depart="24042.00" from="584" to="217" type="car" />
    <trip id="259_0" depart="24045.00" from="263" to="103" type="car" />
    <trip id="8154_0" depart="24049.00" from="450" to="23" type="car" />
    <trip id="6707_0" depart="24063.00" from="257" to="24" type="car" />
    <trip id="8758_0" depart="24065.00" from="102" to="542" type="car" />
    <trip id="765_0" depart="24069.00" from="49" to="534" type="car" />
    <trip id="7866_0" depart="24089.00" from="190" to="448" type="car" />
    <trip id="7883_0" depart="24102.00" from="619" to="299" type="car" />
    <trip id="6224_0" depart="24117.00" from="28" to="132" type="car" />
    <trip id="3525_0" depart="24122.00" from="523" to="244" type="car" />
    <trip id="9447_0" depart="24161.00" from="628" to="279" type="car" />
    <trip id="9235_0" depart="24203.00" from="398" to="516" type="car" />
    <trip id="6970_0" depart="24210.00" from="580" to="24" type="car" />
    <trip id="298_0" depart="24234.00" from="603" to="325" type="car" />
    <trip id="8712_0" depart="24240.00" from="159" to="267" type="car" />
    <trip id="3307_0" depart="24246.00" from="155" to="577" type="car" />
    <trip id="4632_0" depart="24256.00" from="267" to="448" type="car" />
    <trip id="5145_0" depart="24257.00" from="95" to="167" type="car" />
    <trip id="5538_0" depart="24262.00" from="433" to="15" type="car" />
    <trip id="4728_0" depart="24269.00" from="466" to="459" type="car" />
    <trip id="9901_0" depart="24277.00" from="125" to="493" type="car" />
    <trip id="8110_0" depart="24282.00" from="123" to="502" type="car" />
    <trip id="2410_0" depart="24285.00" from="79" to="387" type="car" />
    <trip id="2002_0" depart="24304.00" from="162" to="95" type="car" />
    <trip id="3727_0" depart="24314.00" from="458" to="337" type="car" />
    <trip id="9915_0" depart="24327.00" from="70" to="250" type="car" />
    <trip id="3932_0" depart="24333.00" from="432" to="441" type="car" />
    <trip id="205_0" depart="24350.00" from="459" to="556" type="car" />
    <trip id="8135_0" depart="24358.00" from="523" to="12" type="car" />
    <trip id="3195_0" depart="24368.00" from="114" to="406" type="car" />
    <trip id="2838_0" depart="24370.00" from="556" to="377" type="car" />
    <trip id="7403_0" depart="24375.00" from="196" to="135" type="car" />
    <trip id="4849_0" depart="24380.00" from="539" to="170" type="car" />
    <trip id="3523_0" depart="24387.00" from="82" to="276" type="car" />
    <trip id="1093_0" depart="24393.00" from="278" to="597" type="car" />
    <trip id="1606_0" depart="24393.00" from="233" to="622" type="car" />
    <trip id="5907_0" depart="24393.00" from="157" to="47" type="car" />
    <trip id="6193_0" depart="24415.00" from="96" to="227" type="car" />
    <trip id="1790_0" depart="24426.00" from="207" to="209" type="car" />
    <trip id="5510_0" depart="24429.00" from="49" to="362" type="car" />
    <trip id="9491_0" depart="24456.00" from="550" to="98" type="car" />
    <trip id="7282_0" depart="24459.00" from="301" to="606" type="car" />
    <trip id="5230_0" depart="24487.00" from="24" to="525" type="car" />
    <trip id="1776_0" depart="24489.00" from="281" to="592" type="car" />
    <trip id="2910_0" depart="24502.00" from="608" to="242" type="car" />
    <trip id="6992_0" depart="24510.00" from="544" to="585" type="car" />
    <trip id="160_0" depart="24524.00" from="385" to="180" type="car" />
    <trip id="8946_0" depart="24526.00" from="138" to="248" type="car" />
    <trip id="6902_0" depart="24546.00" from="335" to="387" type="car" />
    <trip id="9262_0" depart="24550.00" from="627" to="431" type="car" />
    <trip id="2254_0" depart="24562.00" from="506" to="564" type="car" />
    <trip id="743_0" depart="24562.00" from="26" to="335" type="car" />
    <trip id="5910_0" depart="24567.00" from="242" to="521" type="car" />
    <trip id="9180_0" depart="24570.00" from="375" to="112" type="car" />
    <trip id="6137_0" depart="24573.00" from="51" to="586" type="car" />
    <trip id="8466_0" depart="24576.00" from="330" to="514" type="car" />
    <trip id="9308_0" depart="24578.00" from="556" to="27" type="car" />
    <trip id="5785_0" depart="24580.00" from="83" to="282" type="car" />
    <trip id="3968_0" depart="24592.00" from="426" to="312" type="car" />
    <trip id="9547_0" depart="24603.00" from="251" to="330" type="car" />
    <trip id="2586_0" depart="24631.00" from="132" to="258" type="car" />
    <trip id="6562_0" depart="24677.00" from="152" to="30" type="car" />
    <trip id="3412_0" depart="24685.00" from="18" to="200" type="car" />
    <trip id="1884_0" depart="24686.00" from="210" to="269" type="car" />
    <trip id="6573_0" depart="24703.00" from="242" to="399" type="car" />
    <trip id="6574_0" depart="24705.00" from="471" to="229" type="car" />
    <trip id="1274_0" depart="24719.00" from="527" to="27" type="car" />
    <trip id="674_0" depart="24719.00" from="350" to="293" type="car" />
    <trip id="5114_0" depart="24726.00" from="188" to="590" type="car" />
    <trip id="4192_0" depart="24760.00" from="343" to="526" type="car" />
    <trip id="6941_0" depart="24760.00" from="523" to="355" type="car" />
    <trip id="2911_0" depart="24783.00" from="582" to="464" type="car" />
    <trip id="5978_0" depart="24800.00" from="115" to="201" type="car" />
    <trip id="1485_0" depart="24811.00" from="430" to="282" type="car" />
    <trip id="7151_0" depart="24830.00" from="186" to="149" type="car" />
    <trip id="3003_0" depart="24831.00" from="399" to="67" type="car" />
    <trip id="8162_0" depart="24842.00" from="115" to="170" type="car" />
    <trip id="2467_0" depart="24845.00" from="544" to="557" type="car" />
    <trip id="8626_0" depart="24850.00" from="23" to="191" type="car" />
    <trip id="8098_0" depart="24863.00" from="208" to="219" type="car" />
    <trip id="6525_0" depart="24869.00" from="61" to="250" type="car" />
    <trip id="4181_0" depart="24884.00" from="402" to="207" type="car" />
    <trip id="2272_0" depart="24888.00" from="565" to="138" type="car" />
    <trip id="9207_0" depart="24892.00" from="564" to="358" type="car" />
    <trip id="3040_0" depart="24894.00" from="253" to="6" type="car" />
    <trip id="3948_0" depart="24900.00" from="28" to="458" type="car" />
    <trip id="9007_0" depart="24902.00" from="4" to="372" type="car" />
    <trip id="2620_0" depart="24903.00" from="604" to="520" type="car" />
    <trip id="6713_0" depart="24911.00" from="532" to="379" type="car" />
    <trip id="1630_0" depart="24914.00" from="491" to="440" type="car" />
    <trip id="8769_0" depart="24928.00" from="338" to="119" type="car" />
    <trip id="6297_0" depart="24929.00" from="224" to="47" type="car" />
    <trip id="4907_0" depart="24937.00" from="80" to="209" type="car" />
    <trip id="170_0" depart="24939.00" from="151" to="4" type="car" />
    <trip id="1887_0" depart="24956.00" from="266" to="571" type="car" />
    <trip id="8669_0" depart="24960.00" from="594" to="617" type="car" />
    <trip id="3857_0" depart="24990.00" from="378" to="623" type="car" />
    <trip id="4428_0" depart="24993.00" from="470" to="513" type="car" />
    <trip id="6446_0" depart="24994.00" from="19" to="352" type="car" />
    <trip id="5694_0" depart="25000.00" from="507" to="502" type="car" />
    <trip id="7263_0" depart="25002.00" from="464" to="286" type="car" />
    <trip id="6767_0" depart="25012.00" from="440" to="463" type="car" />
    <trip id="966_0" depart="25012.00" from="604" to="618" type="car" />
    <trip id="3969_0" depart="25013.00" from="402" to="242" type="car" />
    <trip id="385_0" depart="25025.00" from="394" to="273" type="car" />
    <trip id="574_0" depart="25036.00" from="494" to="332" type="car" />
    <trip id="7724_0" depart="25041.00" from="556" to="251" type="car" />
    <trip id="3618_0" depart="25043.00" from="472" to="146" type="car" />
    <trip id="7707_0" depart="25046.00" from="476" to="176" type="car" />
    <trip id="545_0" depart="25048.00" from="577" to="440" type="car" />
    <trip id="5469_0" depart="25051.00" from="63" to="575" type="car" />
    <trip id="9981_0" depart="25056.00" from="428" to="339" type="car" />
    <trip id="8603_0" depart="25058.00" from="139" to="304" type="car" />
    <trip id="1497_0" depart="25063.00" from="591" to="412" type="car" />
    <trip id="1516_0" depart="25067.00" from="594" to="271" type="car" />
    <trip id="3320_0" depart="25067.00" from="238" to="605" type="car" />
    <trip id="9967_0" depart="25067.00" from="82" to="103" type="car" />
    <trip id="7260_0" depart="25080.00" from="528" to="241" type="car" />
    <trip id="9031_0" depart="25080.00" from="409" to="174" type="car" />
    <trip id="7886_0" depart="25088.00" from="229" to="205" type="car" />
    <trip id="2688_0" depart="25095.00" from="28" to="424" type="car" />
    <trip id="7885_0" depart="25112.00" from="312" to="547" type="car" />
    <trip id="1514_0" depart="25117.00" from="146" to="550" type="car" />
    <trip id="44_0" depart="25123.00" from="569" to="310" type="car" />
    <trip id="1486_0" depart="25134.00" from="377" to="287" type="car" />
    <trip id="3130_0" depart="25152.00" from="308" to="381" type="car" />
    <trip id="2561_0" depart="25154.00" from="27" to="524" type="car" />
    <trip id="8053_0" depart="25154.00" from="197" to="141" type="car" />
    <trip id="5317_0" depart="25161.00" from="355" to="403" type="car" />
    <trip id="7147_0" depart="25164.00" from="401" to="494" type="car" />
    <trip id="3459_0" depart="25166.00" from="153" to="158" type="car" />
    <trip id="2552_0" depart="25169.00" from="477" to="465" type="car" />
    <trip id="4532_0" depart="25171.00" from="582" to="353" type="car" />
    <trip id="5488_0" depart="25182.00" from="351" to="481" type="car" />
    <trip id="9620_0" depart="25200.00" from="262" to="112" type="car" />
    <trip id="7036_0" depart="25209.00" from="237" to="524" type="car" />
    <trip id="1149_0" depart="25211.00" from="112" to="600" type="car" />
    <trip id="42_0" depart="25230.00" from="627" to="182" type="car" />
    <trip id="986_0" depart="25248.00" from="138" to="449" type="car" />
    <trip id="981_0" depart="25256.00" from="326" to="593" type="car" />
    <trip id="2509_0" depart="25257.00" from="580" to="586" type="car" />
    <trip id="620_0" depart="25257.00" from="96" to="585" type="car" />
    <trip id="6610_0" depart="25257.00" from="63" to="511" type="car" />
    <trip id="5746_0" depart="25268.00" from="213" to="437" type="car" />
    <trip id="7166_0" depart="25268.00" from="9" to="442" type="car" />
    <trip id="9084_0" depart="25275.00" from="212" to="482" type="car" />
    <trip id="7074_0" depart="25281.00" from="95" to="555" type="car" />
    <trip id="5556_0" depart="25292.00" from="309" to="364" type="car" />
    <trip id="308_0" depart="25302.00" from="627" to="360" type="car" />
    <trip id="3800_0" depart="25305.00" from="180" to="133" type="car" />
    <trip id="3348_0" depart="25310.00" from="151" to="387" type="car" />
    <trip id="7225_0" depart="25311.00" from="54" to="476" type="car" />
    <trip id="168_0" depart="25313.00" from="246" to="371" type="car" />
    <trip id="4694_0" depart="25317.00" from="625" to="231" type="car" />
    <trip id="9171_0" depart="25322.00" from="526" to="132" type="car" />
    <trip id="5645_0" depart="25323.00" from="8" to="400" type="car" />
    <trip id="1571_0" depart="25336.00" from="52" to="464" type="car" />
    <trip id="8768_0" depart="25342.00" from="571" to="24" type="car" />
    <trip id="6927_0" depart="25357.00" from="437" to="471" type="car" />
    <trip id="4894_0" depart="25358.00" from="591" to="446" type="car" />
    <trip id="5102_0" depart="25359.00" from="471" to="290" type="car" />
    <trip id="2651_0" depart="25382.00" from="268" to="413" type="car" />
    <trip id="5062_0" depart="25386.00" from="566" to="335" type="car" />
    <trip id="6285_0" depart="25386.00" from="218" to="212" type="car" />
    <trip id="7793_0" depart="25386.00" from="508" to="231" type="car" />
    <trip id="847_0" depart="25393.00" from="213" to="606" type="car" />
    <trip id="8751_0" depart="25398.00" from="403" to="126" type="car" />
    <trip id="7447_0" depart="25399.00" from="118" to="333" type="car" />
    <trip id="8328_0" depart="25411.00" from="551" to="353" type="car" />
    <trip id="8401_0" depart="25422.00" from="569" to="137" type="car" />
    <trip id="3561_0" depart="25437.00" from="372" to="120" type="car" />
    <trip id="7153_0" depart="25445.00" from="24" to="441" type="car" />
    <trip id="4505_0" depart="25452.00" from="108" to="273" type="car" />
    <trip id="5561_0" depart="25472.00" from="428" to="155" type="car" />
    <trip id="3693_0" depart="25480.00" from="169" to="26" type="car" />
    <trip id="6722_0" depart="25484.00" from="30" to="531" type="car" />
    <trip id="2847_0" depart="25488.00" from="608" to="83" type="car" />
    <trip id="7644_0" depart="25488.00" from="625" to="595" type="car" />
    <trip id="3252_0" depart="25492.00" from="281" to="577" type="car" />
    <trip id="4330_0" depart="25494.00" from="568" to="617" type="car" />
    <trip id="6867_0" depart="25498.00" from="114" to="291" type="car" />
    <trip id="8982_0" depart="25498.00" from="356" to="225" type="car" />
    <trip id="4410_0" depart="25499.00" from="300" to="15" type="car" />
    <trip id="6002_0" depart="25502.00" from="252" to="174" type="car" />
    <trip id="5946_0" depart="25504.00" from="28" to="116" type="car" />
    <trip id="4472_0" depart="25531.00" from="528" to="305" type="car" />
    <trip id="9917_0" depart="25536.00" from="237" to="186" type="car" />
    <trip id="1519_0" depart="25538.00" from="363" to="111" type="car" />
    <trip id="3643_0" depart="25543.00" from="601" to="96" type="car" />
    <trip id="3303_0" depart="25544.00" from="175" to="192" type="car" />
    <trip id="7075_0" depart="25558.00" from="336" to="118" type="car" />
    <trip id="1822_0" depart="25561.00" from="583" to="550" type="car" />
    <trip id="3860_0" depart="25567.00" from="149" to="118" type="car" />
    <trip id="2644_0" depart="25572.00" from="629" to="245" type="car" />
    <trip id="1411_0" depart="25576.00" from="368" to="177" type="car" />
    <trip id="5802_0" depart="25576.00" from="163" to="263" type="car" />
    <trip id="632_0" depart="25577.00" from="217" to="441" type="car" />
    <trip id="8323_0" depart="25578.00" from="243" to="48" type="car" />
    <trip id="1022_0" depart="25584.00" from="14" to="378" type="car" />
    <trip id="6788_0" depart="25588.00" from="170" to="223" type="car" />
    <trip id="1856_0" depart="25606.00" from="538" to="381" type="car" />
    <trip id="7048_0" depart="25606.00" from="197" to="358" type="car" />
    <trip id="2479_0" depart="25608.00" from="230" to="571" type="car" />
    <trip id="6541_0" depart="25615.00" from="349" to="122" type="car" />
    <trip id="6404_0" depart="25623.00" from="366" to="496" type="car" />
    <trip id="502_0" depart="25625.00" from="436" to="492" type="car" />
    <trip id="2982_0" depart="25627.00" from="542" to="428" type="car" />
    <trip id="8523_0" depart="25632.00" from="385" to="478" type="car" />
    <trip id="1659_0" depart="25639.00" from="260" to="146" type="car" />
    <trip id="4666_0" depart="25644.00" from="246" to="450" type="car" />
    <trip id="6117_0" depart="25644.00" from="224" to="31" type="car" />
    <trip id="8108_0" depart="25661.00" from="21" to="326" type="car" />
    <trip id="9233_0" depart="25664.00" from="388" to="69" type="car" />
    <trip id="7828_0" depart="25668.00" from="354" to="51" type="car" />
    <trip id="1989_0" depart="25670.00" from="274" to="188" type="car" />
    <trip id="2608_0" depart="25679.00" from="7" to="327" type="car" />
    <trip id="4851_0" depart="25684.00" from="629" to="30" type="car" />
    <trip id="1608_0" depart="25686.00" from="259" to="455" type="car" />
    <trip id="8660_0" depart="25686.00" from="78" to="297" type="car" />
    <trip id="9934_0" depart="25687.00" from="298" to="174" type="car" />
    <trip id="544_0" depart="25689.00" from="27" to="60" type="car" />
    <trip id="9158_0" depart="25690.00" from="280" to="82" type="car" />
    <trip id="5999_0" depart="25697.00" from="440" to="270" type="car" />
    <trip id="5046_0" depart="25710.00" from="359" to="485" type="car" />
    <trip id="1929_0" depart="25720.00" from="245" to="410" type="car" />
    <trip id="4682_0" depart="25725.00" from="570" to="211" type="car" />
    <trip id="50_0" depart="25725.00" from="4" to="266" type="car" />
    <trip id="204_0" depart="25736.00" from="127" to="80" type="car" />
    <trip id="5619_0" depart="25737.00" from="578" to="511" type="car" />
    <trip id="9029_0" depart="25738.00" from="577" to="240" type="car" />
    <trip id="5766_0" depart="25740.00" from="360" to="12" type="car" />
    <trip id="1978_0" depart="25741.00" from="341" to="302" type="car" />
    <trip id="1892_0" depart="25742.00" from="65" to="529" type="car" />
    <trip id="8721_0" depart="25748.00" from="456" to="426" type="car" />
    <trip id="1229_0" depart="25749.00" from="410" to="245" type="car" />
    <trip id="4514_0" depart="25750.00" from="7" to="221" type="car" />
    <trip id="2357_0" depart="25758.00" from="335" to="292" type="car" />
    <trip id="6073_0" depart="25758.00" from="570" to="384" type="car" />
    <trip id="9121_0" depart="25766.00" from="461" to="291" type="car" />
    <trip id="4442_0" depart="25769.00" from="146" to="21" type="car" />
    <trip id="3208_0" depart="25778.00" from="378" to="578" type="car" />
    <trip id="493_0" depart="25779.00" from="62" to="618" type="car" />
    <trip id="4614_0" depart="25780.00" from="404" to="621" type="car" />
    <trip id="8050_0" depart="25785.00" from="173" to="399" type="car" />
    <trip id="2274_0" depart="25791.00" from="388" to="385" type="car" />
    <trip id="8174_0" depart="25791.00" from="174" to="59" type="car" />
    <trip id="1550_0" depart="25797.00" from="575" to="270" type="car" />
    <trip id="5818_0" depart="25797.00" from="532" to="21" type="car" />
    <trip id="3167_0" depart="25799.00" from="257" to="484" type="car" />
    <trip id="8402_0" depart="25801.00" from="127" to="578" type="car" />
    <trip id="5438_0" depart="25803.00" from="556" to="567" type="car" />
    <trip id="4705_0" depart="25807.00" from="239" to="338" type="car" />
    <trip id="8222_0" depart="25812.00" from="523" to="603" type="car" />
    <trip id="2899_0" depart="25815.00" from="122" to="174" type="car" />
    <trip id="5157_0" depart="25825.00" from="125" to="134" type="car" />
    <trip id="9376_0" depart="25826.00" from="572" to="222" type="car" />
    <trip id="3758_0" depart="25829.00" from="406" to="256" type="car" />
    <trip id="6282_0" depart="25832.00" from="435" to="84" type="car" />
    <trip id="7402_0" depart="25841.00" from="541" to="337" type="car" />
    <trip id="5434_0" depart="25842.00" from="412" to="518" type="car" />
    <trip id="876_0" depart="25850.00" from="100" to="347" type="car" />
    <trip id="9700_0" depart="25854.00" from="126" to="138" type="car" />
    <trip id="9120_0" depart="25862.00" from="440" to="25" type="car" />
    <trip id="3334_0" depart="25874.00" from="192" to="164" type="car" />
    <trip id="5828_0" depart="25886.00" from="343" to="201" type="car" />
    <trip id="9191_0" depart="25886.00" from="207" to="93" type="car" />
    <trip id="6762_0" depart="25902.00" from="512" to="60" type="car" />
    <trip id="866_0" depart="25905.00" from="135" to="555" type="car" />
    <trip id="4483_0" depart="25911.00" from="503" to="242" type="car" />
    <trip id="2190_0" depart="25914.00" from="549" to="19" type="car" />
    <trip id="120_0" depart="25915.00" from="263" to="97" type="car" />
    <trip id="6629_0" depart="25922.00" from="269" to="223" type="car" />
    <trip id="1760_0" depart="25924.00" from="186" to="485" type="car" />
    <trip id="672_0" depart="25924.00" from="167" to="586" type="car" />
    <trip id="8822_0" depart="25925.00" from="569" to="164" type="car" />
    <trip id="8779_0" depart="25926.00" from="469" to="310" type="car" />
    <trip id="6798_0" depart="25930.00" from="62" to="384" type="car" />
    <trip id="7017_0" depart="25930.00" from="379" to="250" type="car" />
    <trip id="3808_0" depart="25931.00" from="480" to="161" type="car" />
    <trip id="7188_0" depart="25938.00" from="295" to="158" type="car" />
    <trip id="928_0" depart="25941.00" from="252" to="128" type="car" />
    <trip id="4243_0" depart="25950.00" from="57" to="446" type="car" />
    <trip id="2752_0" depart="25952.00" from="471" to="413" type="car" />
    <trip id="5963_0" depart="25952.00" from="212" to="108" type="car" />
    <trip id="1546_0" depart="25960.00" from="205" to="376" type="car" />
    <trip id="4150_0" depart="25960.00" from="301" to="93" type="car" />
    <trip id="8981_0" depart="25965.00" from="32" to="615" type="car" />
    <trip id="2121_0" depart="25967.00" from="381" to="163" type="car" />
    <trip id="4095_0" depart="25969.00" from="136" to="451" type="car" />