<?xml version='1.0' encoding='utf-8'?>
<routes xmlns:xsi="http://www.w3.org/2001/XMLSchema-instance" xsi:noNamespaceSchemaLocation="http://sumo.dlr.de/xsd/routes_file.xsd">



   
   
    
   
    <route edges="428 1656 1655 429 1778 1776 1774 1772 1770 237 235 233 28 26 24 22 20 18 16 14 12 10 8 1869" id="r_0" />
    <route edges="1604 1605 1606 1607 1608 1609 481 482 2187 2188 2189 2190 2191 2192 2182 590 591 592 1575 1576 1577 1578 1579 1580 765 766 767 768 299 771 772 773 774 1564 196 197 198 199 331 1494" id="r_1" />
    <route edges="1074 1075 1073 1120 1015 1017 1108 1101 1102 1330 1328 1326 1324 1322 1320 1318 1316 1314 1388 1386 557 558 559 560 561 562 563 564 546 547 548 549 550 551 254 256 258 260 262 264 266 268 1481 1479 1468 1470" id="r_2" />
    <route edges="1476 1478 1480 1525 1527 1529 1531 1533 1535 1537 1539 1541 362 364 366 368 370 372 798 910 812 814 816 818 820 822 824 826 828 830 832 834 836 838 840 842 844 846 848 850 852 854 856 858 860 862 864 866 868 870 872 874 876 878 880 882 884 886 888 890" id="r_3" />
    <route edges="1173 1175 1177 1179 1181 1182 1180 1178 1176 1174 1172 1170 1276 1274 1272 1270 2191 2192 2182 590 591 592 1575 1576 1577 1578 1579 1580 765 766 767 768 299 771 772 773 774 1564 1565 1566 1567 1568 1569 1570 585 586 587 588 589 430 431 432 433 434 435 436 437 438 439 1561 1562 1563 1482 1483 1484 496 497 498 572 570 568 566 1339 1341 1343 1345 1347 1349 1351 1353 1355 1357 1307 1309 1311 1388 1386 557 558 559 560 561 562 563 564 546 547 548 549 550 551 254 256 258 260 262 264 266 268 1525 1527 1529 1531 1533 1535 1537 1539 1541 362 364 366 368 370 372 798 910 812 814 816 818 820 822 784 799 800 801 802 803 360 361 2167 1306 916 917 918 919 920 921" id="r_4" />
    <route edges="1054 1056 1058 1060 1062 1621 1622 2075 2077 1893 1635 1637 1639 1641 1643 1645" id="r_5" />
    <route edges="278 276 1530 1528 1526 269 267 265 263 261 259 257 255 552 553 554 555 556 1385 1387 1313 1315 1317 1319 1321 1323 1325 1327 1329 1331 1333 1335 1337 565 567 569 571 1836 1837 1490 1491 1492 1617 1618 1619 1620 1601 1602 1603 1604 1605 1606 1607 1608 1609 481 482 2187 2188 2189 2190 1269 1271 1273 1275 1169 1171 97 95 98 100 102 92" id="r_6" />
    <route edges="625 627 629 631 633 635 637 638 636 634 632 630 628 626 624 622 752 753 754 755 756 757 758 2057 2059 2061 2063 2065 2067 2069 2071 2073 2075 2077 1893 1635 1637 1639 1641 1643 1645 1647 1649 1651 1653 1655 429 1778 1776 1774 1772 1770 237 235" id="r_7" />
    <route edges="1263 1264 1265 1266 355 353 1866 1868 7 9 11 13 15 17 19 21 23 25 27 231 229 227 1193 954 955" id="r_8" />
    <route edges="847 845 843 841 839 837 835 833 831 829 827 825 784 799 800 801 802 803 360 361 2167 1306 916 917 918 919 920 921 922 923 912 1367 1368 1369 1370 1371 1372 1373 2041 2043 2045 603 605 607 609 611 613 615 547 548 549 550 551 552 553 554 555 556 1385 1387 1313 1315 1317 1319 1321 1323 1325 1327 1329 1331 1333 1335 1337 565 567 569 571 1836 1837 1490 1491 1492 1617 1618 1619 1620 1601 1602 1603 1604 1605 1606 1607 1608 1609 481 482 2187 2188 2189 2190 2191 2192 2182 590 591 592 1575 1576 1577 1578 1579 1580 765 766 767 768 299 1153 1154 1589 1591 1593 1137 1135 1133 1439 1441" id="r_9" />
    <route edges="371 369 367 365 363 1542 1540 1538 1536 1534 1532 1530 1528 1526 269 267 265 263 261 259 257 255 552 553 554 555 556 1385 1387 1313 1315 1317 1319 1321 1323 1325 1327 1329 1331 1333 1335 1337 565 567 569 571 1836 1837 1490 1491 1492 1617 1618 1619 1620 1601 1602 1603 1604 1605 1606 1607 1608 1609 481 482 2187 2188 2189 2190 2191 2192 2182 590 591 592 1575 1576 1577 1578 1579 1580 765 766 767 768 299 1153 1154 1589 1591 1657 1658 1659" id="r_10" />
    <route edges="1666 1665 1667 1669 1671 269 267 265 263 261 259 257 255 552 553 554 555 556 1385 1387 1313 1315 1317 1319 1321 1323 1325 1327 1329 1331 1333 1335 1337 565 567 569 571 1836 1837 1490 1491 1492 1617 1618 1619 1620 1601 1602 1603" id="r_11" />
    <route edges="1349 1350 1348 1346 1344 1342 1340 565 567 569 571 1836 1837 1490 1491 1492 1617 1618 1619 1620 1601 1602 1603 1604 1605 1606 1607 1608 1609 481 482 2187 2188 2189 2190 2191 2192 2182 590 591 592 1575 1576 1577 1578 1579 1580 765 766 767 768 299 771 772 773 774 1564 1565 1566 1567 1568 1569 1570 585 586 587 588 589 430 431 432 433 434 435 436 796 794 793 795" id="r_12" />
    <route edges="1298 1162 1138 1295 1080 1081 1082 1083 1084 999 1001 1003 1005 1007 1009 183 1294 1292 1290 1288 1286 1284 603 605 607 609 611 613 615 547 548 549 550 551 254 256 258 260 262 264 266 268 1525 1527 1529 1531 1533 1535 1537 1539 1541 362 364 366 368 370 372 798 910 812 814 816 818 820" id="r_13" />
    <route edges="2161 29 31 33 2113 2111 2109 2107 2105 1960 1961 212 216 202 204 1866 1868 7 9 11 13 15 17 19 21 23 25 27 232 234 236 1769 289 291" id="r_14" />
    <route edges="2161 29 31 33 2113 2111 2109 2107 2105 1960 1961 212 216 202 204 1866 1868 7 9 11 13 15 17 19 21 23 25 27 231 229 1066 1068 1070 680 678 676 674 672 670 668 666 664" id="r_15" />
    <route edges="891 889 887 885 883 881 879 877 875 873 871 869 867 865 863 861 859 857 855 853 851 849 847 845 843 841 839 837 835 833 831 829 827 825 823 821 819 817 815 813 911 797 373 371 369 367 365 363 1542 1540 1538 1536 1534 1532 1530 1528 1526 1672" id="r_16" />
    <route edges="994 995 996 1144 1145 1146 1580 765 766 767 768 299 771 772 773 774 1564 1565 1566 1567 1568 1569 1570 585 586 587 588 589 430 431 432 433 434 435 436 437 438 439 1561 1562 1563 1482 1483 1484 1485 1486 1487 1488 1489 1490 1491 1492 1617 1618 1619 1620 1601 1602 1603 1604 1605 1606 1607 1608 1609 481 482 2187 2188 2189 2190 1269 1271 1273 1275 1168 1166 1164" id="r_17" />
    <route edges="662 1216 1214 1212 1210 1208 1206 218 220 222 224 226 228 230 232 234 236 1769 1771 1773 1775 1777 428 1656 1654 1652 1650 1648 1646 1644 1642 1640 1638 1636 1894 1499 1501 1503 1505 1507 1509 1511 1513 1515 1517 1519 1521 1523 1524 1522 1520 1518 1516 1514 1512 1510 1508 1506" id="r_18" />
    <route edges="1802 1800 1828 1830 1832 1028 1029 1030 1031 1032 1033 1034 1035 1036 1037 1038 1039 1040 1041 1155 1987 1989 1991 1380 1361 1362 1363 1364 1365 1366 1367 1368 1369 1370 1371 1372 1373 2041 2043 2045 603 605 607 609 611 613 615 547 548 549 550 551 254 256 258 260 262 264 266 268 1525 1527 1529 1531 1533 1535 1537 1538" id="r_19" />
    </routes>