<?xml version="1.0" encoding="UTF-8"?>

<!-- generated on 2023-03-02 15:26:47 by Eclipse SUMO duarouter Version 1.16.0
<configuration xmlns:xsi="http://www.w3.org/2001/XMLSchema-instance" xsi:noNamespaceSchemaLocation="http://sumo.dlr.de/xsd/duarouterConfiguration.xsd">

    <input>
        <net-file value="sumo/MASA.net.xml"/>
        <route-files value="sumo/plans/40_plans.rou.xml"/>
    </input>

    <output>
        <output-file value="sumo/route.rou.xml"/>
    </output>

</configuration>
-->

<routes xmlns:xsi="http://www.w3.org/2001/XMLSchema-instance" xsi:noNamespaceSchemaLocation="http://sumo.dlr.de/xsd/routes_file.xsd">
    <vType id="car" vClass="passenger"/>
    <vehicle id="1282_0" type="car" depart="19475.00">
        <route edges="428 1656 1655 429 1778 1776 1774 1772 1770 237 235 233 28 26 24 22 20 18 16 14 12 10 8 1869"/>
    </vehicle>
    <vehicle id="1095_0" type="car" depart="21982.00">
        <route edges="1604 1605 1606 1607 1608 1609 481 482 2187 2188 2189 2190 2191 2192 2182 590 591 592 1575 1576 1577 1578 1579 1580 765 766 767 768 299 771 772 773 774 1564 196 197 198 199 331 1494"/>
    </vehicle>
    <vehicle id="732_0" type="car" depart="22103.00">
        <route edges="1074 1075 1073 1120 1015 1017 1108 1101 1102 1330 1328 1326 1324 1322 1320 1318 1316 1314 1388 1386 557 558 559 560 561 562 563 564 546 547 548 549 550 551 254 256 258 260 262 264 266 268 1481 1479 1468 1470"/>
    </vehicle>
    <vehicle id="557_0" type="car" depart="22845.00">
        <route edges="1476 1478 1480 1525 1527 1529 1531 1533 1535 1537 1539 1541 362 364 366 368 370 372 798 910 812 814 816 818 820 822 824 826 828 830 832 834 836 838 840 842 844 846 848 850 852 854 856 858 860 862 864 866 868 870 872 874 876 878 880 882 884 886 888 890"/>
    </vehicle>
    <vehicle id="1385_0" type="car" depart="23091.00">
        <route edges="1173 1175 1177 1179 1181 1182 1180 1178 1176 1174 1172 1170 1276 1274 1272 1270 2191 2192 2182 590 591 592 1575 1576 1577 1578 1579 1580 765 766 767 768 299 771 772 773 774 1564 1565 1566 1567 1568 1569 1570 585 586 587 588 589 430 431 432 433 434 435 436 437 438 439 1561 1562 1563 1482 1483 1484 496 497 498 572 570 568 566 1339 1341 1343 1345 1347 1349 1351 1353 1355 1357 1307 1309 1311 1388 1386 557 558 559 560 561 562 563 564 546 547 548 549 550 551 254 256 258 260 262 264 266 268 1525 1527 1529 1531 1533 1535 1537 1539 1541 362 364 366 368 370 372 798 910 812 814 816 818 820 822 784 799 800 801 802 803 360 361 2167 1306 916 917 918 919 920 921"/>
    </vehicle>
    <vehicle id="1467_0" type="car" depart="23348.00">
        <route edges="1054 1056 1058 1060 1062 1621 1622 2075 2077 1893 1635 1637 1639 1641 1643 1645"/>
    </vehicle>
    <vehicle id="559_0" type="car" depart="23349.00">
        <route edges="278 276 1530 1528 1526 269 267 265 263 261 259 257 255 552 553 554 555 556 1385 1387 1313 1315 1317 1319 1321 1323 1325 1327 1329 1331 1333 1335 1337 565 567 569 571 1836 1837 1490 1491 1492 1617 1618 1619 1620 1601 1602 1603 1604 1605 1606 1607 1608 1609 481 482 2187 2188 2189 2190 1269 1271 1273 1275 1169 1171 97 95 98 100 102 92"/>
    </vehicle>
    <vehicle id="229_0" type="car" depart="23674.00">
        <route edges="625 627 629 631 633 635 637 638 636 634 632 630 628 626 624 622 752 753 754 755 756 757 758 2057 2059 2061 2063 2065 2067 2069 2071 2073 2075 2077 1893 1635 1637 1639 1641 1643 1645 1647 1649 1651 1653 1655 429 1778 1776 1774 1772 1770 237 235"/>
    </vehicle>
    <vehicle id="282_0" type="car" depart="23681.00">
        <route edges="1263 1264 1265 1266 355 353 1866 1868 7 9 11 13 15 17 19 21 23 25 27 231 229 227 1193 954 955"/>
    </vehicle>
    <vehicle id="472_0" type="car" depart="23838.00">
        <route edges="847 845 843 841 839 837 835 833 831 829 827 825 784 799 800 801 802 803 360 361 2167 1306 916 917 918 919 920 921 922 923 912 1367 1368 1369 1370 1371 1372 1373 2041 2043 2045 603 605 607 609 611 613 615 547 548 549 550 551 552 553 554 555 556 1385 1387 1313 1315 1317 1319 1321 1323 1325 1327 1329 1331 1333 1335 1337 565 567 569 571 1836 1837 1490 1491 1492 1617 1618 1619 1620 1601 1602 1603 1604 1605 1606 1607 1608 1609 481 482 2187 2188 2189 2190 2191 2192 2182 590 591 592 1575 1576 1577 1578 1579 1580 765 766 767 768 299 1153 1154 1589 1591 1593 1137 1135 1133 1439 1441"/>
    </vehicle>
    <vehicle id="620_0" type="car" depart="24262.00">
        <route edges="371 369 367 365 363 1542 1540 1538 1536 1534 1532 1530 1528 1526 269 267 265 263 261 259 257 255 552 553 554 555 556 1385 1387 1313 1315 1317 1319 1321 1323 1325 1327 1329 1331 1333 1335 1337 565 567 569 571 1836 1837 1490 1491 1492 1617 1618 1619 1620 1601 1602 1603 1604 1605 1606 1607 1608 1609 481 482 2187 2188 2189 2190 2191 2192 2182 590 591 592 1575 1576 1577 1578 1579 1580 765 766 767 768 299 1153 1154 1589 1591 1657 1658 1659"/>
    </vehicle>
    <vehicle id="1301_0" type="car" depart="24264.00">
        <route edges="1666 1665 1667 1669 1671 269 267 265 263 261 259 257 255 552 553 554 555 556 1385 1387 1313 1315 1317 1319 1321 1323 1325 1327 1329 1331 1333 1335 1337 565 567 569 571 1836 1837 1490 1491 1492 1617 1618 1619 1620 1601 1602 1603"/>
    </vehicle>
    <vehicle id="892_0" type="car" depart="24270.00">
        <route edges="1349 1350 1348 1346 1344 1342 1340 565 567 569 571 1836 1837 1490 1491 1492 1617 1618 1619 1620 1601 1602 1603 1604 1605 1606 1607 1608 1609 481 482 2187 2188 2189 2190 2191 2192 2182 590 591 592 1575 1576 1577 1578 1579 1580 765 766 767 768 299 771 772 773 774 1564 1565 1566 1567 1568 1569 1570 585 586 587 588 589 430 431 432 433 434 435 436 796 794 793 795"/>
    </vehicle>
    <vehicle id="1437_0" type="car" depart="24302.00">
        <route edges="1298 1162 1138 1295 1080 1081 1082 1083 1084 999 1001 1003 1005 1007 1009 183 1294 1292 1290 1288 1286 1284 603 605 607 609 611 613 615 547 548 549 550 551 254 256 258 260 262 264 266 268 1525 1527 1529 1531 1533 1535 1537 1539 1541 362 364 366 368 370 372 798 910 812 814 816 818 820"/>
    </vehicle>
    <vehicle id="1318_0" type="car" depart="24324.00">
        <route edges="2161 29 31 33 2113 2111 2109 2107 2105 1960 1961 212 216 202 204 1866 1868 7 9 11 13 15 17 19 21 23 25 27 232 234 236 1769 289 291"/>
    </vehicle>
    <vehicle id="1252_0" type="car" depart="24355.00">
        <route edges="2161 29 31 33 2113 2111 2109 2107 2105 1960 1961 212 216 202 204 1866 1868 7 9 11 13 15 17 19 21 23 25 27 231 229 1066 1068 1070 680 678 676 674 672 670 668 666 664"/>
    </vehicle>
    <vehicle id="962_0" type="car" depart="24486.00">
        <route edges="891 889 887 885 883 881 879 877 875 873 871 869 867 865 863 861 859 857 855 853 851 849 847 845 843 841 839 837 835 833 831 829 827 825 823 821 819 817 815 813 911 797 373 371 369 367 365 363 1542 1540 1538 1536 1534 1532 1530 1528 1526 1672"/>
    </vehicle>
    <vehicle id="1035_0" type="car" depart="24488.00">
        <route edges="994 995 996 1144 1145 1146 1580 765 766 767 768 299 771 772 773 774 1564 1565 1566 1567 1568 1569 1570 585 586 587 588 589 430 431 432 433 434 435 436 437 438 439 1561 1562 1563 1482 1483 1484 1485 1486 1487 1488 1489 1490 1491 1492 1617 1618 1619 1620 1601 1602 1603 1604 1605 1606 1607 1608 1609 481 482 2187 2188 2189 2190 1269 1271 1273 1275 1168 1166 1164"/>
    </vehicle>
    <vehicle id="770_0" type="car" depart="24518.00">
        <route edges="662 1216 1214 1212 1210 1208 1206 218 220 222 224 226 228 230 232 234 236 1769 1771 1773 1775 1777 428 1656 1654 1652 1650 1648 1646 1644 1642 1640 1638 1636 1894 1499 1501 1503 1505 1507 1509 1511 1513 1515 1517 1519 1521 1523 1524 1522 1520 1518 1516 1514 1512 1510 1508 1506"/>
    </vehicle>
    <vehicle id="624_0" type="car" depart="24524.00">
        <route edges="1802 1800 1828 1830 1832 1028 1029 1030 1031 1032 1033 1034 1035 1036 1037 1038 1039 1040 1041 1155 1987 1989 1991 1380 1361 1362 1363 1364 1365 1366 1367 1368 1369 1370 1371 1372 1373 2041 2043 2045 603 605 607 609 611 613 615 547 548 549 550 551 254 256 258 260 262 264 266 268 1525 1527 1529 1531 1533 1535 1537 1538"/>
    </vehicle>
    <vehicle id="189_0" type="car" depart="24592.00">
        <route edges="1643 1644 1642 1640 1638 1636 1894 1499 1501 1503 1505 1507 1509 1511 1513 1515 1517 1519 1521 1523 1524 1522 1520"/>
    </vehicle>
    <vehicle id="651_0" type="car" depart="24600.00">
        <route edges="1513 1515 1517 1519 1521 1523 1524 1522 1520 1518 1516 1514 1512 1510 1508 1506 1504 1502 1500 1893 1635 1637 1639 1641 1643 1645 1647 1649 1651 1653 1655 429 1778 1776 1774 1772 1770 237 235 233 28 26 24 22 20 18 16 14 12 10 8 1869 1867 205 203 217 213 215 1917 1918 1919 1920 1921 1928 1930 1932 1934 1936 1938 1940 1942 1944 1946"/>
    </vehicle>
    <vehicle id="1366_0" type="car" depart="24601.00">
        <route edges="1516 1514 1512 1510 1508 1506 1504 1502 1500 1893 1635 1637 1639 1641 1643 1645 1647 1649 1651 1653 1895 1897 1899 1901 1903 1905 1907 1909 1911 1913 1915 1916 1914"/>
    </vehicle>
    <vehicle id="410_0" type="car" depart="24758.00">
        <route edges="1029 1030 1031 1032 1033 1034 1035 1036 1037 1038 1039 1040 1041 1155 1987 1989 1991 1380 1361 1362 1363 1364 1365 1366 1367 1368 1369 1370 1371 1372 1373 2041 2043 2045 603 605 607 609 611 613 615 547 548 549 550 551 254 256 258 259"/>
    </vehicle>
    <vehicle id="215_0" type="car" depart="24828.00">
        <route edges="2120 2121 2119 2117 2115 2113 2111 2109 2107 2105 1960 1961 212 216 202 204 1866 1868 7 9 11 13 15 17 19 21 23 25"/>
    </vehicle>
    <vehicle id="137_0" type="car" depart="24858.00">
        <route edges="860 862 864 866 868 870 872 874 876 878 880 882 884 886 888 890 892 894 896 898 900 902 904 906 908 910 812 814 816 818 820 822 784 799 800 801 802 803 360 361 2167 1306 916 917 918 919 920 921 922 923 912 1367 1368 1369 1370 1371 1372 1373 2041 2043 2045 603 605 607 609 611 613 615 547 548 549 550 551 552 553 554 555 556 1385 1387 1313 1315 1317 1319 1321 1323 1325 1327 1329 1331 1333 1335 1337 565 567 569 571 1836 1837 1490 1491 1492 1617 1618 1619 1620 1601 1602 1603 1604 1605 1606 1607 1608 1609 481 482 2187 2188 2189 2190 2191 2192 2182 590 591 592 1575 1576 1577 1578 1579 1580 765 766 767 768 299 771 772 773 774 1564 1565 1566 1567 1568 1569 1570 585 586 587 588 589 430 431 432 433 643 645 647 649 651"/>
    </vehicle>
    <vehicle id="81_0" type="car" depart="24882.00">
        <route edges="291 467 468 292 290 1770 237 235 233 231 229 1066 1068 1070 680 678 676 674 672 670 668 666 664 662 1216"/>
    </vehicle>
    <vehicle id="99_0" type="car" depart="24966.00">
        <route edges="529 1866 1868 7 9 11 13 15 17 19 21 23 25 27 232 234 236 63 61 59 1859 696 694 692 690"/>
    </vehicle>
    <vehicle id="1237_0" type="car" depart="24979.00">
        <route edges="1382 1383 1384 1564 196 197 198 199 200 479"/>
    </vehicle>
    <vehicle id="1430_0" type="car" depart="24994.00">
        <route edges="126 128 435 436 437 438 439 1561 1562 1563 1482 1483 1484 1485 1486 1487 1488 1489 1490 1491 1492 1617 1618 1619 1620 1601 1602 1603 1604 1605 1606 1607 1608 1609 481 482 2187 2188 2189 2190 1269 1271 1273 1275 1169 1171 1173 1175 1177 1179 1181 1182 1180 1178"/>
    </vehicle>
    <vehicle id="327_0" type="car" depart="25004.00">
        <route edges="1781 1783 1785 1787 1789 1790 1788 1786 1784 1782 1780 611 613 615 547 548 549 550 551 552 553 554 555 556 1385 1387 1313 1315 1317 1319 1321 1323 1325 1327 1329 1331 1333 1335 1337 565 567 569 571 1836 1837 1490 1491 1492 1617 1618 1619 1620 1601 1602 1603 1604 1605 1606 1607 1608 1609 481 482 2187 2188 2189 2190 2191 2192 2182 590 591 592 1575 1576 1577 1578 1579 1580 765 766 767 768 299 1153 1154 211 209 207"/>
    </vehicle>
    <vehicle id="160_0" type="car" depart="25071.00">
        <route edges="653 655 657 659 431 432 433 434 129 127 125 493 494 495 1495 1496 1497 1498 1569 1570 1571 1572 1573 1574 1575 1576 1577 1578 1579 1580 765 766 767 768 299 771 772 773 774 1564 196"/>
    </vehicle>
    <vehicle id="794_0" type="car" depart="25119.00">
        <route edges="555 556 1385 1387 1313 1315 1317 1319 1321 1323 1325 1327 1329 1331 1333 1335 1337 565 567 569 571 1836 1837 1490 1491 1492 1617 1618 1619 1620 1601 1602 1603 1604 1605 1606 1607 1608 1609 481 482 2187 2188 2189 2190 2191 2192 2182 590 591 592 1575 1576 1577 1578 1579 1580 765 766 767 768 299 771 772 773 774 1564 1565 1566 1567 1568 1569 1570 585 586 587 588 589 430 431 432 433 643 645 647"/>
    </vehicle>
    <vehicle id="976_0" type="car" depart="25150.00">
        <route edges="1877 1875 1873 1871 1870 1872 1874 1876 1878 1880 1882 1884 1886 1544 1542 1540 1538 1536 1534 1533"/>
    </vehicle>
    <vehicle id="994_0" type="car" depart="25182.00">
        <route edges="2194 72 1993 1995 1997 21 23 25 27 232 234 236 1769 1771 1773 1775 1777 428 1656 1654 1652 1650 1648 1646 1644 1642 1640 1638 1636 1894 1560 1558 1556 1554 1552 1550 1548 1546"/>
    </vehicle>
    <vehicle id="1155_0" type="car" depart="25190.00">
        <route edges="1017 1108 1101 1102 1330 1328 1326 1324 1322 1320 1318 1316 1314 1388 1386 557 558 559 560 561 562 563 564 546 547 548 549 550 551 254 256 258 260 262 264 266 268 1525 1527 1529 1531 1533 1535 1537 1539 1541 1543 1887 1885 1883 1881 1879 1877 1875 1873 1871 1870 1872 1874 1876 1878 1880 1882"/>
    </vehicle>
    <vehicle id="63_0" type="car" depart="25197.00">
        <route edges="2092 2090 2089 2091 2093 1424 1444 1442 1440 1132 1134 1136 1594 1592 1590 1381 1382 1383 1384 1564 1565 1566 1567 1568 1569 1570 585 586 587 588 589 430 431 432 433 434 435 436 437 438 439 1561 1562 1563 1482 1483 1484 1485 1486 1487 1488 1489 1490 1491 1492 1617 1618 1619 1620 1601 1602 1603 1604 1605 1606 1607 1608 1609 481 482 2187 2188 2189 2190 1269 1271"/>
    </vehicle>
    <vehicle id="700_0" type="car" depart="25246.00">
        <route edges="1488 1489 1490 1491 1492 1617 1618 1619 1620 1601 1602 1603 1604 1605 1606 1607 1608 1609 542 543 544 1482 1483 1484 496 497 498 572 570 568 566 1339 1341 1343 1345 1347 1349 1351 1353 1355 1357 1307 1309 1311 1388 1386 557 558 559 560 561 562 563 564 546 547 548 549 550 551 254 256 258 260 262 264 266 268 1525 1527 1529 1531 1533 1535 1537 1539 1541 362 364 366 368 370 372 798 910 812 814 816 818 820 822 824 826 828 830 832 834 836 838 840 842 844 846 848 850 852 854 856 858 860 862 864 866 868 870 872 874 876 878 880 882 884 886 888 890 892 894 896 898 900 902 904 906 908"/>
    </vehicle>
    <vehicle id="733_0" type="car" depart="25316.00">
        <route edges="2069 2071 2073 2075 2077 1893 1635 1637 1639 1641 1643 1645 1647 1649 1651 1653 1655 429 1778 1776 1774 1772 1770 237 235 233 231 229 227 225 223 36 38 40 41 39 37"/>
    </vehicle>
    <vehicle id="964_0" type="car" depart="25425.00">
        <route edges="362 364 366 368 370 372 798 910 812 814 816 818 820 822 784 799 800 801 802 803 360 361 2167 1306 916 917 918 919 920 921 922 923 912 1367 1368 1369 1370 1371 1372 1373 2041 2043 2045 603 605 607 609 611 613 615 547 548 549 550 551 552 553 554 555 556 1385 1387 1313 1315 1317 1319 1321 1323 1325 1327 1329 1331 1333 1335 1337 565 567 569 571 1836 1837 1490 1491 1492 469 470 471 472 1250 1251"/>
    </vehicle>
    <vehicle id="230_0" type="car" depart="25446.00">
        <route edges="1610 1611 1612 1613 1614 1615 1616 1461 1462 1463 1464 1465 1466 1467 1888 1493 1494 1495 1496 1497 1498 1569 1570 585 586 587 588 589 430 431 432 433 434 435 436 437 438 439 1561 1562 1563 1482 1483 1484 1485 1486 1487 1488 1489 1490 1491 1492 1617 1618 1619 1620 1601 1602 1603 1604 1605 1606 1607 1608 1609 481 482"/>
    </vehicle>
    <vehicle id="1233_0" type="car" depart="25452.00">
        <route edges="897 895 893 891 889 887 885 883 881 879 877 875 873 871 869 867 865 863 861 859 857 855 853 851 849 847 845 843 841 839 837 835 833 831 829 827 825 784 799 800 801 802 803 360 361 2167 1306 1359 1302 1298 1162 1138 1295 1080 1081 1082 1083 1084 999 1001 1003 1005 1007 1009 183 507 509 511 513 444 445 446 447 448 449 450 451 452 116 118 120 122 124 126 128"/>
    </vehicle>
    <vehicle id="364_0" type="car" depart="25472.00">
        <route edges="333 238 240 242 244 246 248 1540 1538 1536 1534 1532 1530 1528 1526 269 267 265 263 261 259 257 255 552 553 554 555 556 1385 1387 1313 1315 1317 1319 1321 1323 1325 1327 1329 1331 1333 1335 1337 565 567 569 571 1836 1837 1490 1491 1492 1617 1618 1619 1620 1601 1602 1603 1604 1605 1606 1607 1608 1609 481 482 2187 2188 2189 2190 2191 2192 2182 590 591 592 1575 1576 1577 1578 1579 1580 765 766 767 768 299 771 772 773 774 1564 1565 1566 1567 1568 1569 1570 585 586 587 588 589 430 431 432 433 434 129"/>
    </vehicle>
    <vehicle id="489_0" type="car" depart="25556.00">
        <route edges="1566 1567 1568 1569 1570 585 586 587 588 589 430 431 432 433 434 435 436 437 438 439 1561 1562 1563 1482 1483 1484 496 497 498 572 570 568 566 1339 1341 1343 1345 1347 1349 1351 1353 1355 1357 1307 1309 1311 1388 1386 557 558 559 560 561 562 563 564 546 547 548 549 550 551 552 553"/>
    </vehicle>
    <vehicle id="971_0" type="car" depart="25567.00">
        <route edges="564 546 547 548 549 550 551 552 553 554 555 556 1385 1387 1313 1315 1317 1319 1321 1323 1325 1327 1329 1331 1333 1335 1337 565 567 569 571 1836 1837 1490 1491 1492 1617 1618 1619 1620 1601 1602 1603 1604 1605 1606 1607 1608 1609 481 482 2187 2188 2189 2190 2191 2192 2182 590 591 592 1575 1576 1577 1578 1579 1580 765 766 767 768 299 1153 1154 1589 1591 1593 1137 1135 1133 1439 1441 1443 1445 1447 64 65 1448"/>
    </vehicle>
    <vehicle id="119_0" type="car" depart="25600.00">
        <route edges="682 1071 1069 1067 227 225 947 949 950"/>
    </vehicle>
    <vehicle id="969_0" type="car" depart="25616.00">
        <route edges="307 1136 1594 1592 1590 1381 1382 1383 1384 1564 1565 1566 1567 1568 1569 1570 585 586 587 588 589 430 431 432 433 434 435 436 437 438 439 1561 1562 1563 1482 1483 1484 496 497 498 572 570 568 566 1339 1341 1343 1345 1347 1349 1351 1353 1355 1357 1307 1309 1311 1388 1386 557 558 559 560 561 562 563 564 546 547 548 549 550 551 254 256 258 260 262 264 266 268 1525 1527 1529 1531 1533 1535 1537 1539 1541 362 364 366 368 370 372 798 910 812 814 816 818 820 822 824 826 828 830 832 834 836 838 840 842 844 846 848 850 852 854 856 858 860 862 864 866 868 870 872 874 876 878 880 882 884 886 888 890"/>
    </vehicle>
    <vehicle id="675_0" type="car" depart="25645.00">
        <route edges="27 232 234 236 1769 1771 1773 1775 1777 428 1656 1654 1652 1650 1648 1646 1644 1642 1640 1638 1636 1894 1499 1501 1503 1505 1507 1509 1511 1513 1515 1517 1519"/>
    </vehicle>
    <vehicle id="939_0" type="car" depart="25670.00">
        <route edges="572 570 568 566 1339 1341 1343 1345 1347 1349 1351 1353 1355 1357 1307 1309 1311 1388 1386 557 558 559 560 561 562 563 564 546 547 548 549 550 551 254 256 258 260 262 264 266 268 1525 1527 1529 1531 1533 1535 1537 1539 1541 362 364 366 368 370 372 798 910 812 814 816 818 820 822 824 826 828 830 832 834 836 838 840 842 844 846 848 850 852 854 856 858 860 862 864 866 868 870 872 874 876 878 880 882 884 886 888 890 892"/>
    </vehicle>
    <vehicle id="686_0" type="car" depart="25687.00">
        <route edges="499 501 502 500 257 255 552 553 554 555 556 1385 1387 1313 1315 1317 1319 1321 1323 1325 1327 1329 1331 1333 1335 1337 565 567 569 571 1836 1837 1490 1491 1492 1617 1618 1619 1620 1601 1602 1603 1604 1605 1606 1607 1608 1609 481 482 2187 2188 2189 2190 2191 2192 2182 590 591 592 1575 1576 1577 1578 1579 1580 765 766 767 768 299 771 772 773 774 1564 1565 1566 1567 1568 1569 1570 585 586 587 588 589 430 660 658 657"/>
    </vehicle>
    <vehicle id="1014_0" type="car" depart="25689.00">
        <route edges="265 263 261 260 262 264 266 268 1525 1527 1529 1531 1533 1535 1537 1539 249 247 245 243 241 239 238"/>
    </vehicle>
    <vehicle id="1276_0" type="car" depart="25710.00">
        <route edges="2120 2121 2119 2117 2115 2113 2111 2109 2107 2105 1960 1961 212 216 202 204 1866 1868 7 9 11 13 15 17 19 21 23 25 27 232 234 236 1769 1771 1773 1775 1777 428 1656 1654 1652 1650 1648 1646 1644 1642 1640 1638 1636 1894 2078 2076 2074 2072 2070 2068 2066 2064 2062 2060 2058 2056 739 740 741 742 743 744 745 746 747 748 749 750 751 752"/>
    </vehicle>
    <vehicle id="839_0" type="car" depart="25745.00">
        <route edges="26 24 22 20 18 16 14 12 10 1957 1955 1953 782 783"/>
    </vehicle>
    <vehicle id="982_0" type="car" depart="25770.00">
        <route edges="2117 2115 2113 2111 2109 2107 2105 1960 1961 212 216 202 204 352 354 1860 374 376 378 380 382 384"/>
    </vehicle>
    <vehicle id="321_0" type="car" depart="25849.00">
        <route edges="1648 1646 1645 1647 1649 1651 1653 1655 429 1778 1776 2040 2038 2036 2034 2032 2030 2028 2026 2024 2022 2020 2018 53 51 49 47 45 44 46 48"/>
    </vehicle>
    <vehicle id="38_0" type="car" depart="25932.00">
        <route edges="583 584 582 596 594 1533 1535 1537 1539 1541 362 364 366 368 370 372 798 910 812 814 816 818 820 822 784 799 398 400"/>
    </vehicle>
    <vehicle id="469_0" type="car" depart="25935.00">
        <route edges="1074 1075 1073 1120 1014 1012 471 472 1250 1251 1252 1601 1602 1603 1604 1605 1606 1607 1608 1609 481 482 2187 2188 2189 2190 2191 2192 2182 590 591 592 1575 1576 1577 1578 1579 1580 765 766 767 768 299 771 772 773 774 1564 1565 1566 1567 1568 1569 1570 585 586 587 588 589 430 431 432 433 643 645 647 649 651 653"/>
    </vehicle>
    <vehicle id="1046_0" type="car" depart="25946.00">
        <route edges="1351 1353 1355 1357 1307 1309 1311 1313 1315 1317 1319 1321 1323 1325 1327 1329 1331 1333 1335 1337 565 567 569 571 1836 1837 1490 1491 1492 1617 1618 1619 1620 1601 1602 1603 1604 1605 1606 1607 1608 1609 542 543 544 1482 1483 1484"/>
    </vehicle>
    <vehicle id="337_0" type="car" depart="25998.00">
        <route edges="2167 1306 916 917 918 919 920 921 922 923 912 1367 1368 1369 1370 1371 1372 1373 1374 1375 1376 1377 1378 1379 1992 1990 1988 1156 1109 1110 1111 1112 1113 1114 1115 1116 1117 1118 1432 1064 1065 1026 1027 1028 1029"/>
    </vehicle>
    <vehicle id="862_0" type="car" depart="26023.00">
        <route edges="619 620 1956 9 11 13 15 17 19 21 23 25 27 232 234 236 1769 1771 1773 1775 1777 428 1656 1654 1652 1650 1648 1646 1644 1642 1640 1638 1636 1894 1499 1501 1503 1505 1507 1509 1511 1513 1515 1517 1519 1521 1523 1524 1522 1520 1518 1516 1514 1512 1510 1508 1506 1504 1502 1500"/>
    </vehicle>
    <vehicle id="1020_0" type="car" depart="26051.00">
        <route edges="1994 1993 1995 1997 21 23 25 27 232 234 236 1769 1771 1773 1775 1777 428 1656 1654 1652 1650 1648 1646 1644 1642 1640 1638 1636 1894 2078 2076 2074 2072 2070 1673 1675 1677 1679 1681 1683 1685 1687 1689 1691 1693 1695 1697 1699 1701 1703 1705 1707 1709 1711 1713 1715 1717 1719 1721 1723 1725 1727 1729 1731 1733 1735 1737 1739 1741 1743 1745 1747 1749 1751 1753 1755 1757 1759 1761 1763 1765 1767 1768 1766 1764 1762"/>
    </vehicle>
    <vehicle id="1163_0" type="car" depart="26074.00">
        <route edges="1182 1180 1178 1176 1174 1172 1170 1276 1274 1272 1270 2191 2192 2182 590 591 592 1575 1576 1577 1578 1579 1580 765 766 767 768 299 771 772 773 774 1564 1565 1566 1567 1568 1569 1570 585 586 587 588 589 430 431 432 433 434 435 436 437 438 439 1561 1562 1563 1482 1483 1484 1485 1486 1487 1488 1489 1490 1491 1492 469 470 471 472 1250 1251"/>
    </vehicle>
    <vehicle id="827_0" type="car" depart="26103.00">
        <route edges="1032 1033 1034 1091 1092 1093 1094 1095 1117 1118 2099 2100 2101 2102"/>
    </vehicle>
    <vehicle id="617_0" type="car" depart="26157.00">
        <route edges="2045 603 605 607 609 611 613 615 547 548 549 550 551 254"/>
    </vehicle>
    <vehicle id="836_0" type="car" depart="26191.00">
        <route edges="372 798 797 373 371 369 367 365 363 1542 249 247 245 243 241"/>
    </vehicle>
    <vehicle id="1196_0" type="car" depart="26210.00">
        <route edges="921 922 923 912 1367 1368 1369 1370 1371 1372 1373 2041 2043 2045 603 605 607 609 611 613 615 547 548 549 550 551 552 553 554 555 556 1385 1387 1313 1315 1317 1319 1321 1323 1325 1327 1329 1331 1333 1335 1337 565 567 569 571"/>
    </vehicle>
    <vehicle id="1348_0" type="car" depart="26228.00">
        <route edges="61 60 62 237 235 233 28 26 24 22 1999 759 760"/>
    </vehicle>
    <vehicle id="1087_0" type="car" depart="26294.00">
        <route edges="298 296 294 1775 1777 428 1656 1895 1897 1899 1901 1903 1905 1907 1909 1911 1913 1915 1916 1914"/>
    </vehicle>
    <vehicle id="1425_0" type="car" depart="26294.00">
        <route edges="42 44 46 48 50 52 2017 2019 2021 2023 2025 2027 2029 2031 2033 2035 2037 2039 1775 1777 428 1656 1654 1652 1650 1648 1646 1644 1642 1640 1638 1636 1634 1632 1630 1628 406 408"/>
    </vehicle>
    <vehicle id="279_0" type="car" depart="26325.00">
        <route edges="1427 1398 1396 1394 1392 1962 1964 1062 1621 1622 2075 2077 1893 1635 1637 1639 1641 1643 1645 1647 1649 1651 1653 1655 429 1778 1776 1774 1772 1770 237 235 233 232"/>
    </vehicle>
    <vehicle id="212_0" type="car" depart="26376.00">
        <route edges="1062 1621 1622 2075 2077 1893 1635 1637 1639 1641 1643 1645 1647 1649 1651 1653 1655 429 1778 1776 1774 1772 1770 237 235 233 28 26 24 22 20 18 16 14 12 10 8 1869 1867 352 354 1860 374 376 378 380 382 384"/>
    </vehicle>
    <vehicle id="1026_0" type="car" depart="26427.00">
        <route edges="1694 1692 1690 1688 1686 1684 1682 1680 1678 1676 1674 2069 2128 2129 1621 1622"/>
    </vehicle>
    <vehicle id="13_0" type="car" depart="26427.00">
        <route edges="622 752 753 754 755 756 757 758 2057 2059 2061 2063 2065 2067 2069 2128 2129 1063 1061 1059 1057"/>
    </vehicle>
    <vehicle id="1065_0" type="car" depart="26479.00">
        <route edges="467 468 292 290 1771 1773 2040 2038 2036 769 770"/>
    </vehicle>
    <vehicle id="986_0" type="car" depart="26483.00">
        <route edges="500 258 260 262 264 266 268 1672 1670 1668 1666 1665"/>
    </vehicle>
    <vehicle id="1133_0" type="car" depart="26490.00">
        <route edges="124 126 128 435 436 437 438 439 1561 1562 1563 1482 1483 1484 496 497 498 572 570 568 566 1339 1341 1343 1345 1347 1349 1351 1353 1355 1357 1307 1309 1311 1388 1386 557 558 559 560 561 562 563 564 546 547 548 549 550 551 254 256 258 260 262 264 266 268 1525 1527 1529 1531 1533 1535 1537 1539 1541 362 364 366 368 370 372 798 910 812 814 816 818 820 822"/>
    </vehicle>
    <vehicle id="772_0" type="car" depart="26511.00">
        <route edges="1459 1474 1130 1132 1134 1136 1594 1592 1590 1381 1382 1383 1384 1564 1565 1566 1567 1568 1569 1570 585 586 587 588 589 430 431 432 433 434 129 127 125 493 494 495"/>
    </vehicle>
    <vehicle id="946_0" type="car" depart="26518.00">
        <route edges="1651 1653 1655 429 1778 1776 1774 1772 1770 237 235 233 28 26 24 22 20 18 16 14 12 10 8 1869 1867 352 354 1860 2195 2197 2199 2200"/>
    </vehicle>
    <vehicle id="344_0" type="car" depart="26586.00">
        <route edges="1833 1832 1028 1029 1030 1031 1032 1033 1034 1035 1036 1037 1038 1039 1040 1041 1155 1987 1989 1991 1380 1361 1362 1363 1364 1365 1366 1367 1368 1369 1370 1371 1372 1373 2041 2043 2045 603 605 607 609 611 613 615 547 548 549 550 551 552 553 554 555 556 1385 1387 1313 1315 1317 1319 1321 1323 1325 1327 1329 1331 1333 1335 1337 565 567 569 571 1836 1837 1490 1491 1492 1617 1618 1619 1620 1601 1602 1603 1604 1605 1606 1607 1608 1609 481 482 2187 2188"/>
    </vehicle>
    <vehicle id="1287_0" type="car" depart="26709.00">
        <route edges="743 744 745 746 747 748 749 750 751 752 753 754 755 756 757 758 2057 2059 2061 2063 2065 2067 2069 2071 2073 2075 2077 1893 1635 1637 1639 1641 1643 1645 1647 1649 1651 1653 1655 429 1778 1776 1774 1772 1770 237 235 233 28 26 24 22 20 18 16 14 12 10 8 1869 1867 205 203 217 213 215 2180 2178 2176 2174 2172 2170 2137"/>
    </vehicle>
    <vehicle id="178_0" type="car" depart="26767.00">
        <route edges="2136 2169 2171 2173 2175 2177 2179 1917 86 87 88 89 90 91 2106 2108 2110 2112 2114 2116 2118 2120 2122 2123"/>
    </vehicle>
    <vehicle id="56_0" type="car" depart="26788.00">
        <route edges="1342 1340 565 567 569 571 1836 1837 1490 1491 1492 1617 1618 1619 1620 1601 1602 1603 1604 1605 1606 1607 1608 1609 481 482 2187 2188 2189 2190 2191 2192 2182 590 591 592 1575 1576 1577 1578 1579 1580 765 766 767 768 299 1153 1154 1589 1591 1593 1137 1135 1133 1439 1441 1 3"/>
    </vehicle>
    <vehicle id="1073_0" type="car" depart="26789.00">
        <route edges="278 276 1530 1528 1526 269 267 265 263 261 259 257 255 552 553 554 555 556 1385 1387 1313 1315 1317 1319 1321 1323 1325 1327 1329 1331 1333 1335 1337 565 567 569 571 1836 1837 1490 1491 1492 1617 1618 1619 1620 1601 1602 1603 1604 1605 1606 1607 1608 1609 481 482 2187 2188 2189 2190 2191 2192 2182 590 591 592 1575 1576 1577 1578 1579 1580 765 766 767 768 299 1153 1154 1589 1591 1657 1658 1659 1660 1661 1662 1663"/>
    </vehicle>
    <vehicle id="1351_0" type="car" depart="26893.00">
        <route edges="1621 1622 2075 2077 1893 1635 1637 1639 1641 1643 1645 1647 1649 1651 1653 1655 429 1778 1776 1774 1772 1770 63 61 59 1859 696 694 692 690 688 686"/>
    </vehicle>
    <vehicle id="15_0" type="car" depart="26904.00">
        <route edges="477 479 1889 1890 191"/>
    </vehicle>
    <vehicle id="1173_0" type="car" depart="26936.00">
        <route edges="478 476 1134 1136 1594 1592 1590 1381 1382 1383 1384 1564 1565 1566 1567 1568 1569 1570 585 586 587 588 589 430 431 432 433 434 435 436 437 438 439 1561 1562 1563 1482 1483 1484 1485 1486 1487 1488 1489 1490 1491 1492 1617 1618 1619 1620 1601 1602 1603 1604 1605"/>
    </vehicle>
    <vehicle id="435_0" type="car" depart="26954.00">
        <route edges="1650 1648 1646 1644 1642 1640 1638 1636 1894 2078 2076 2075 2077"/>
    </vehicle>
    <vehicle id="1100_0" type="car" depart="26970.00">