<?xml version="1.0" encoding="UTF-8"?>

<!-- generated on 2022-10-07 10:34:10 by Eclipse SUMO polyconvert Version 1.14.1
<configuration xmlns:xsi="http://www.w3.org/2001/XMLSchema-instance" xsi:noNamespaceSchemaLocation="http://sumo.dlr.de/xsd/polyconvertConfiguration.xsd">

    <input>
        <net-file value="osm.net.xml"/>
        <osm-files value="osm_bbox.osm.xml.gz"/>
        <osm.keep-full-type value="true"/>
        <type-file value="/usr/share/sumo/data/typemap/osmPolyconvert.typ.xml"/>
    </input>

    <output>
        <output-file value="osm.poly.xml"/>
    </output>

    <report>
        <verbose value="true"/>
    </report>

</configuration>
-->

<additional xmlns:xsi="http://www.w3.org/2001/XMLSchema-instance" xsi:noNamespaceSchemaLocation="http://sumo.dlr.de/xsd/additional_file.xsd">
    <location netOffset="-652403.58,-4933231.74" convBoundary="-0.00,-261.30,2088.73,800.03" origBoundary="10.918501,44.533940,10.944554,44.543505" projParameter="+proj=utm +zone=32 +ellps=WGS84 +datum=WGS84 +units=m +no_defs"/>
    <parkingArea id="pa_1" lane="-E1_0" startPos="295.28" endPos="305.28" roadsideCapacity="5"/>
    
</additional>
