<?xml version="1.0" encoding="UTF-8"?>

<!-- generated on 2022-10-07 10:34:10.784226 by osmWebWizard.py UNKNOWN
<configuration>
    <allow-fringe.min-length value="1000.0"/>
    <end value="3600"/>
    <fringe-factor value="5.0"/>
    <fringe-start-attributes value="departSpeed=&quot;max&quot;"/>
    <lanes value="True"/>
    <min-distance value="300.0"/>
    <net-file value="/home/riccardo/Scrivania/UNIVERSITA/tirocinio/sumo/tools/2022-10-07-10-33-58/osm.net.xml"/>
    <period value="41.47960516946493"/>
    <route-file value="/home/riccardo/Scrivania/UNIVERSITA/tirocinio/sumo/tools/2022-10-07-10-33-58/osm.passenger.rou.xml"/>
    <trip-attributes value="departLane=&quot;best&quot;"/>
    <output-trip-file value="/home/riccardo/Scrivania/UNIVERSITA/tirocinio/sumo/tools/2022-10-07-10-33-58/osm.passenger.trips.xml"/>
    <prefix value="veh"/>
    <validate value="True"/>
    <vehicle-class value="passenger"/>
</configuration>
-->

<!-- generated on 2022-10-07 10:34:10 by Eclipse SUMO duarouter Version 1.14.1
<configuration xmlns:xsi="http://www.w3.org/2001/XMLSchema-instance" xsi:noNamespaceSchemaLocation="http://sumo.dlr.de/xsd/duarouterConfiguration.xsd">

    <input>
        <net-file value="/home/riccardo/Scrivania/UNIVERSITA/tirocinio/sumo/tools/2022-10-07-10-33-58/osm.net.xml"/>
        <route-files value="/home/riccardo/Scrivania/UNIVERSITA/tirocinio/sumo/tools/2022-10-07-10-33-58/osm.passenger.trips.xml"/>
    </input>

    <output>
        <output-file value="/home/riccardo/Scrivania/UNIVERSITA/tirocinio/sumo/tools/2022-10-07-10-33-58/osm.passenger.trips.xml.tmp"/>
        <alternatives-output value="NUL"/>
        <write-trips value="true"/>
    </output>

    <time>
        <begin value="0"/>
        <end value="3600"/>
    </time>

    <report>
        <no-warnings value="true"/>
        <ignore-errors value="true"/>
        <no-step-log value="true"/>
    </report>

</configuration>
-->

<routes xmlns:xsi="http://www.w3.org/2001/XMLSchema-instance" xsi:noNamespaceSchemaLocation="http://sumo.dlr.de/xsd/routes_file.xsd">
    <vType id="veh_passenger" vClass="passenger"/>
    <trip id="t_0" depart="0.00" from="-E3" to="E1" via="-E2"/>
</routes>
