<?xml version="1.0" encoding="UTF-8"?>

<!-- generated on 2022-10-07 10:56:01 by Eclipse SUMO netedit Version 1.14.1
-->

<routes xmlns:xsi="http://www.w3.org/2001/XMLSchema-instance" xsi:noNamespaceSchemaLocation="http://sumo.dlr.de/xsd/routes_file.xsd">
    <vType id="type1" accel="0.8" decel="4.5" sigma="0.5" length="5" maxSpeed="70"/>
    <!-- Routes -->
    <vehicle id="my_vehicle" type="type1" depart="0" color="1,0,0">
        <route edges="-E0 -E3 -E2 -E1 -E0 -E3 -E2"/>
        <stop parkingArea="pa_1" duration="20"/>
    </vehicle>
    
    
   
</routes>
