<?xml version="1.0" encoding="UTF-8"?>
<!DOCTYPE network SYSTEM "http://www.matsim.org/files/dtd/network_v2.dtd">
<network>

<!-- ====================================================================== -->

	<nodes>
		<node id="10564569751" x="655447.4618380292" y="4946910.780680364" >
		</node>
		<node id="10564569752" x="655477.9988066438" y="4946893.165364237" >
		</node>
		<node id="10564569753" x="655556.5247295178" y="4946861.267366487" >
		</node>
		<node id="10564569754" x="655570.5740214577" y="4946862.250320412" >
		</node>
		<node id="10564569755" x="655724.083939427" y="4946815.177317991" >
		</node>
		<node id="10564569756" x="655870.3880771073" y="4946755.819064042" >
		</node>
		<node id="10564569757" x="655975.6163195479" y="4946711.288296882" >
		</node>
		<node id="10564569758" x="656199.3571111856" y="4946975.298338682" >
		</node>
		<node id="10564569777" x="656055.8873807491" y="4946662.85524623" >
		</node>
		<node id="10564569778" x="656058.829944141" y="4946669.450611843" >
		</node>
		<node id="1076629757" x="653073.9501188544" y="4946781.283076504" >
		</node>
		<node id="1076629758" x="653075.4804044681" y="4946788.01019564" >
		</node>
		<node id="1076629761" x="653074.6041977264" y="4946794.858124647" >
		</node>
		<node id="1076629764" x="653057.4331699334" y="4946808.777731234" >
		</node>
		<node id="1076629766" x="653050.520982822" y="4946808.224968869" >
		</node>
		<node id="1076629767" x="653044.2111084724" y="4946805.352462102" >
		</node>
		<node id="1076629769" x="653036.7300509673" y="4946795.661330228" >
		</node>
		<node id="1076629770" x="653035.5667985491" y="4946788.842886963" >
		</node>
		<node id="1076629771" x="653036.8150689824" y="4946782.025997055" >
		</node>
		<node id="1076629776" x="653052.24359479" y="4946769.332093379" >
		</node>
		<node id="1076629777" x="653059.183259902" y="4946769.396473686" >
		</node>
		<node id="1076629780" x="653065.678115264" y="4946771.828800867" >
		</node>
		<node id="1076629789" x="653377.8277465325" y="4946481.699385386" >
		</node>
		<node id="1076629791" x="653380.1646864048" y="4946468.473149137" >
		</node>
		<node id="1076629793" x="653385.2158435544" y="4946464.22510086" >
		</node>
		<node id="1076629794" x="653395.7237077282" y="4946463.040808018" >
		</node>
		<node id="1076629795" x="653404.3692163124" y="4946469.1255932525" >
		</node>
		<node id="1076629797" x="653406.8906934977" y="4946477.532380593" >
		</node>
		<node id="1076629799" x="653400.7711208144" y="4946489.357299164" >
		</node>
		<node id="1076629800" x="653388.9231539959" y="4946491.85460969" >
		</node>
		<node id="1076629802" x="652741.654031429" y="4946240.040350468" >
		</node>
		<node id="1076629803" x="652737.9124400951" y="4946242.263689063" >
		</node>
		<node id="1076629804" x="652723.7189952005" y="4946239.9387288615" >
		</node>
		<node id="1076629805" x="652721.5524409594" y="4946237.620193988" >
		</node>
		<node id="1076629806" x="652718.9258442059" y="4946230.933963295" >
		</node>
		<node id="1076629807" x="652719.0697714903" y="4946226.85840031" >
		</node>
		<node id="1076629808" x="652725.823756309" y="4946217.348554804" >
		</node>
		<node id="1076629809" x="652729.515524259" y="4946215.890921035" >
		</node>
		<node id="1076629810" x="652738.8449199059" y="4946216.9116771715" >
		</node>
		<node id="1076629811" x="652742.7138999986" y="4946219.70392033" >
		</node>
		<node id="1076629812" x="652746.5892631095" y="4946227.9312328" >
		</node>
		<node id="1076629813" x="652746.3061128638" y="4946232.525879189" >
		</node>
		<node id="1076629814" x="653273.0352866636" y="4946144.724926351" >
		</node>
		<node id="1076629815" x="653260.8490314439" y="4946151.426826574" >
		</node>
		<node id="1076629816" x="653244.0058792031" y="4946149.093451727" >
		</node>
		<node id="1076629817" x="653232.1380521648" y="4946134.674508606" >
		</node>
		<node id="1076629818" x="653232.1770793607" y="4946120.3156480575" >
		</node>
		<node id="1076629819" x="653241.0802446278" y="4946107.867496348" >
		</node>
		<node id="1076629820" x="653258.7766878149" y="4946103.3301762715" >
		</node>
		<node id="1076629822" x="653275.3332011935" y="4946113.070081987" >
		</node>
		<node id="1076629825" x="653280.105745859" y="4946127.598653346" >
		</node>
		<node id="1076629832" x="653641.0525874667" y="4946135.97079412" >
		</node>
		<node id="1076629833" x="653638.2435838513" y="4946137.326650264" >
		</node>
		<node id="1076629835" x="653634.5219215339" y="4946137.693853549" >
		</node>
		<node id="1076629838" x="653628.8136959206" y="4946135.190765308" >
		</node>
		<node id="1076629840" x="653627.1086303397" y="4946133.160746321" >
		</node>
		<node id="1076629848" x="653625.7833447037" y="4946129.839370108" >
		</node>
		<node id="1076629850" x="653625.9196421544" y="4946125.44130106" >
		</node>
		<node id="1076629852" x="653627.9309292762" y="4946121.599072898" >
		</node>
		<node id="1076629853" x="653629.7474663164" y="4946119.941755384" >
		</node>
		<node id="1076629856" x="653636.7853501632" y="4946118.241864588" >
		</node>
		<node id="1076629859" x="653639.5743113419" y="4946119.06395702" >
		</node>
		<node id="1076629862" x="653642.5155325816" y="4946121.156714796" >
		</node>
		<node id="1076629867" x="653645.0148755547" y="4946125.817512458" >
		</node>
		<node id="1076629869" x="653645.2438017703" y="4946128.201441568" >
		</node>
		<node id="1106153758" x="652188.2248566386" y="4946024.63472925" >
		</node>
		<node id="1113595402" x="653097.322605063" y="4946327.881063081" >
		</node>
		<node id="1113595405" x="653107.9470389292" y="4946330.82249188" >
		</node>
		<node id="1113595406" x="653111.2003830452" y="4946329.454715037" >
		</node>
		<node id="1113595408" x="653095.2204300247" y="4946320.173447027" >
		</node>
		<node id="1113595409" x="653103.994015136" y="4946331.251197526" >
		</node>
		<node id="1113595412" x="653095.9426833483" y="4946324.847484617" >
		</node>
		<node id="1131729791" x="654724.0078762899" y="4947670.074367071" >
		</node>
		<node id="122006257" x="655570.8319831501" y="4945977.724516418" >
		</node>
		<node id="122006261" x="655418.863467974" y="4946091.248595913" >
		</node>
		<node id="122006262" x="655232.2059395465" y="4946266.2173931375" >
		</node>
		<node id="122006263" x="655168.9331380217" y="4946342.299401883" >
		</node>
		<node id="122006264" x="655112.3460978782" y="4946415.886091533" >
		</node>
		<node id="122006267" x="654916.6137080065" y="4946752.350747004" >
		</node>
		<node id="122006271" x="654836.3216699527" y="4946844.799398501" >
		</node>
		<node id="122006274" x="654803.4244906832" y="4946871.930721295" >
		</node>
		<node id="122006276" x="654673.8872298155" y="4946943.59535894" >
		</node>
		<node id="122006279" x="654258.3595981927" y="4947058.075325138" >
		</node>
		<node id="122006281" x="654214.2375643657" y="4947075.738653791" >
		</node>
		<node id="122006284" x="654107.843981237" y="4947138.697223195" >
		</node>
		<node id="1314391506" x="653229.9045678782" y="4946113.437526171" >
		</node>
		<node id="1328953556" x="656161.594928524" y="4946143.655179305" >
		</node>
		<node id="1328953693" x="656166.5498440994" y="4946138.228727267" >
		</node>
		<node id="1328953708" x="656930.9294413682" y="4947203.997043584" >
		</node>
		<node id="1328953745" x="656993.5475463686" y="4947359.757592247" >
		</node>
		<node id="1328953789" x="656288.6848124544" y="4946070.925990517" >
		</node>
		<node id="1328953809" x="655808.8587087438" y="4945715.819859802" >
		</node>
		<node id="1328953907" x="656938.0137464462" y="4947221.6081433" >
		</node>
		<node id="1328958277" x="657085.5634287922" y="4947592.969966347" >
		</node>
		<node id="1345262963" x="652717.7512336689" y="4946210.4780350095" >
		</node>
		<node id="1345262968" x="652714.2507514822" y="4946206.527510609" >
		</node>
		<node id="1351412335" x="652709.7971419621" y="4946197.252920354" >
		</node>
		<node id="1351413961" x="652646.7284042607" y="4945991.959097229" >
		</node>
		<node id="1352881132" x="653450.1853605052" y="4945995.672913351" >
		</node>
		<node id="1352881135" x="653344.7946407762" y="4946097.246281371" >
		</node>
		<node id="1352881143" x="653280.9352232204" y="4946150.825175365" >
		</node>
		<node id="1352896978" x="653056.4590988152" y="4946207.600151075" >
		</node>
		<node id="1352896984" x="652989.0392419451" y="4946204.969875911" >
		</node>
		<node id="1352896986" x="652977.7280142473" y="4946205.224447341" >
		</node>
		<node id="1352896988" x="652857.8316571796" y="4946206.810521743" >
		</node>
		<node id="1352918049" x="652199.870808431" y="4946053.628369335" >
		</node>
		<node id="1352918051" x="652204.712715599" y="4946059.588537216" >
		</node>
		<node id="1352918059" x="652704.7903325285" y="4946207.693220109" >
		</node>
		<node id="1352947074" x="652702.4231373903" y="4946195.40038486" >
		</node>
		<node id="1352947084" x="653175.8901053887" y="4946216.620958865" >
		</node>
		<node id="1352947085" x="653194.6018049202" y="4946217.097904818" >
		</node>
		<node id="1352947086" x="653066.0268874494" y="4946216.307059727" >
		</node>
		<node id="1352947087" x="653062.2991964065" y="4946216.263213785" >
		</node>
		<node id="1352947092" x="653046.340749989" y="4946216.107493787" >
		</node>
		<node id="1352947098" x="652992.4340657187" y="4946215.386617046" >
		</node>
		<node id="1352947099" x="652967.5073798384" y="4946215.040982007" >
		</node>
		<node id="1352947100" x="653178.7582112848" y="4946224.813564132" >
		</node>
		<node id="1352947101" x="653067.7412138027" y="4946224.650107493" >
		</node>
		<node id="1352947102" x="653062.5223477879" y="4946224.593165486" >
		</node>
		<node id="1352947111" x="653046.7460259737" y="4946224.4528721" >
		</node>
		<node id="1359255622" x="653219.1511428669" y="4946172.466663055" >
		</node>
		<node id="1359255623" x="653225.7398705921" y="4946178.324579326" >
		</node>
		<node id="1359255712" x="653360.6160990063" y="4946277.674995228" >
		</node>
		<node id="1359255732" x="653344.8876339004" y="4946284.8817212675" >
		</node>
		<node id="1359255735" x="653431.0120219165" y="4946347.722036421" >
		</node>
		<node id="1359261117" x="653389.8526309797" y="4946116.176548988" >
		</node>
		<node id="1359261119" x="653385.4511041257" y="4946119.784275298" >
		</node>
		<node id="1359262854" x="653385.5767365904" y="4946436.658831149" >
		</node>
		<node id="1359262856" x="653366.97431367" y="4946450.988280061" >
		</node>
		<node id="1419841622" x="652763.3789577485" y="4946539.874554799" >
		</node>
		<node id="1419841657" x="652898.5887583186" y="4946574.448778479" >
		</node>
		<node id="1419841705" x="653101.666643019" y="4946749.5080755465" >
		</node>
		<node id="1433699948" x="654771.881481757" y="4946614.062647724" >
		</node>
		<node id="1433699956" x="654779.0467901725" y="4946614.323217742" >
		</node>
		<node id="1433699957" x="654768.6974883545" y="4946614.842191964" >
		</node>
		<node id="1433699958" x="654782.9429626844" y="4946615.6058127" >
		</node>
		<node id="1433699959" x="654769.8202019606" y="4946616.3250892805" >
		</node>
		<node id="1433699960" x="654756.7998718421" y="4946621.048073484" >
		</node>
		<node id="1433699961" x="654797.5188890276" y="4946622.112477101" >
		</node>
		<node id="1433699963" x="654762.5393555395" y="4946622.874963485" >
		</node>
		<node id="1433699964" x="654747.0130863356" y="4946625.904104413" >
		</node>
		<node id="1433699966" x="654741.4878882179" y="4946627.716808643" >
		</node>
		<node id="1433699967" x="654759.6511015195" y="4946631.8418839825" >
		</node>
		<node id="1433699968" x="654738.7521158505" y="4946635.286959633" >
		</node>
		<node id="1433699969" x="654762.8829400716" y="4946643.967441814" >
		</node>
		<node id="1433699970" x="654742.9913408671" y="4946646.425212229" >
		</node>
		<node id="1433699971" x="654774.3574300631" y="4946650.455336276" >
		</node>
		<node id="1433699972" x="654831.6076220452" y="4946652.894089875" >
		</node>
		<node id="1433699973" x="654776.3349603069" y="4946655.993285514" >
		</node>
		<node id="1433699974" x="654754.6551640884" y="4946657.263383796" >
		</node>
		<node id="1433699975" x="654840.4985720763" y="4946668.867571461" >
		</node>
		<node id="1433699976" x="654745.9811885227" y="4946671.304434926" >
		</node>
		<node id="1433699977" x="654751.8243215521" y="4946684.037146137" >
		</node>
		<node id="1433699978" x="654932.8397832718" y="4946700.9461080795" >
		</node>
		<node id="1433699979" x="654764.151051152" y="4946700.315105629" >
		</node>
		<node id="1433699980" x="654908.0789647319" y="4946711.277948675" >
		</node>
		<node id="1433699981" x="654879.8519074537" y="4946711.3347556675" >
		</node>
		<node id="1433699982" x="654808.7260528157" y="4946716.565503828" >
		</node>
		<node id="1433699983" x="654779.3883792612" y="4946714.306543145" >
		</node>
		<node id="1433699984" x="654795.0283129693" y="4946719.438274546" >
		</node>
		<node id="1433699985" x="654840.0607154451" y="4946722.884805426" >
		</node>
		<node id="1433699986" x="654956.4625091203" y="4946729.799156781" >
		</node>
		<node id="1433699994" x="654860.6041392374" y="4946739.55996185" >
		</node>
		<node id="1433699995" x="654865.2015634044" y="4946739.7146235015" >
		</node>
		<node id="1433699996" x="654856.1831518719" y="4946739.98748825" >
		</node>
		<node id="1433699997" x="654848.4357474585" y="4946742.836057134" >
		</node>
		<node id="1433699998" x="654882.5561676652" y="4946744.1318874275" >
		</node>
		<node id="1433699999" x="654843.4081824766" y="4946745.071836433" >
		</node>
		<node id="1433700000" x="654838.2548637787" y="4946748.582776539" >
		</node>
		<node id="1433700001" x="654827.7594539543" y="4946759.179022866" >
		</node>
		<node id="1433700002" x="654958.9351692296" y="4946760.990291835" >
		</node>
		<node id="1433700003" x="654823.1835575791" y="4946781.298420328" >
		</node>
		<node id="1433700004" x="654968.5042013985" y="4946788.361530056" >
		</node>
		<node id="1433700007" x="654945.0234545486" y="4946800.568936946" >
		</node>
		<node id="1433700008" x="654836.9850702531" y="4946803.880478011" >
		</node>
		<node id="1433700009" x="654854.1811829826" y="4946809.938825996" >
		</node>
		<node id="1433700010" x="654997.2877720173" y="4946821.306446504" >
		</node>
		<node id="1433700011" x="654948.801327969" y="4946817.031264635" >
		</node>
		<node id="1433700012" x="654884.859903226" y="4946816.464937452" >
		</node>
		<node id="1433700013" x="654957.900070497" y="4946819.027827271" >
		</node>
		<node id="1433700014" x="654883.582114984" y="4946820.791200934" >
		</node>
		<node id="1433700015" x="654828.2921998651" y="4946824.667489011" >
		</node>
		<node id="1433700016" x="654974.831360239" y="4946831.159806625" >
		</node>
		<node id="1433700017" x="654957.0650730211" y="4946833.334443431" >
		</node>
		<node id="1433700018" x="654943.2651079518" y="4946838.160599367" >
		</node>
		<node id="1433700019" x="654882.7960173967" y="4946833.065031069" >
		</node>
		<node id="1433700020" x="655017.2491601013" y="4946844.025601744" >
		</node>
		<node id="1433700021" x="654884.4673809891" y="4946838.462307701" >
		</node>
		<node id="1433700022" x="654823.4540291631" y="4946841.512313271" >
		</node>
		<node id="1433700023" x="654934.2184749016" y="4946849.869533961" >
		</node>
		<node id="1433700024" x="654891.1113842234" y="4946848.213444824" >
		</node>
		<node id="1433700025" x="655050.4592506231" y="4946857.448704692" >
		</node>
		<node id="1433700026" x="654922.9051933088" y="4946855.866822515" >
		</node>
		<node id="1433700027" x="654906.7505368437" y="4946855.34606557" >
		</node>
		<node id="1433700028" x="655096.437476573" y="4946862.431353615" >
		</node>
		<node id="1433700029" x="654906.0542301424" y="4946859.241686741" >
		</node>
		<node id="1433700030" x="654858.2513163217" y="4946860.218507787" >
		</node>
		<node id="1433700031" x="654836.1558839848" y="4946866.279815999" >
		</node>
		<node id="1433716816" x="654089.0152445808" y="4946321.034574375" >
		</node>
		<node id="1433716822" x="654084.7813764783" y="4946337.227405113" >
		</node>
		<node id="1433716823" x="654114.786157241" y="4946360.816571976" >
		</node>
		<node id="1433716824" x="654264.7344648666" y="4946417.333146901" >
		</node>
		<node id="1433716825" x="654323.5322260495" y="4946443.411403783" >
		</node>
		<node id="1433716826" x="654293.2006143532" y="4946512.619310758" >
		</node>
		<node id="1433716827" x="654294.0732059107" y="4946537.536586208" >
		</node>
		<node id="1433716828" x="654242.0732560763" y="4946537.450880881" >
		</node>
		<node id="1433716829" x="654249.1133895435" y="4946553.590459035" >
		</node>
		<node id="1433716831" x="654196.9045741588" y="4946552.9555147765" >
		</node>
		<node id="1433716832" x="654543.2233662736" y="4946571.022016328" >
		</node>
		<node id="1433716833" x="654550.120251871" y="4946570.898016315" >
		</node>
		<node id="1433716834" x="654557.2582958277" y="4946577.937533013" >
		</node>
		<node id="1433716837" x="654561.2986201033" y="4946580.823928271" >
		</node>
		<node id="1433716840" x="654565.9188362667" y="4946583.3463061545" >
		</node>
		<node id="1433716844" x="654700.3701689463" y="4946600.235118822" >
		</node>
		<node id="1433716845" x="654590.1708256449" y="4946601.898703668" >
		</node>
		<node id="1433716846" x="654603.3658250258" y="4946610.094626446" >
		</node>
		<node id="1433716849" x="653905.2094980766" y="4946686.553773489" >
		</node>
		<node id="1433716850" x="654476.9283222842" y="4946954.776318347" >
		</node>
		<node id="1433716851" x="654471.6295010819" y="4946971.35471165" >
		</node>
		<node id="1433716852" x="654460.7863242263" y="4946983.26582107" >
		</node>
		<node id="1444329946" x="655872.6365377505" y="4947239.292660772" >
		</node>
		<node id="1444329952" x="655833.4327107233" y="4947244.948849153" >
		</node>
		<node id="1444864630" x="655229.4204347262" y="4946849.042416496" >
		</node>
		<node id="1444874088" x="655368.4069671242" y="4946854.884294936" >
		</node>
		<node id="1444874089" x="655380.1619970186" y="4946859.234947108" >
		</node>
		<node id="1444874156" x="655767.3487584069" y="4946921.842481715" >
		</node>
		<node id="1444874164" x="655766.3642673985" y="4946926.153442076" >
		</node>
		<node id="1444874182" x="655765.0826835365" y="4946930.612843681" >
		</node>
		<node id="1444874183" x="655763.8527934009" y="4946932.928371947" >
		</node>
		<node id="1444874186" x="655762.6911508298" y="4946935.045482961" >
		</node>
		<node id="1444874187" x="655761.4832244642" y="4946936.450143089" >
		</node>
		<node id="1444874188" x="655760.1258405269" y="4946937.4733030675" >
		</node>
		<node id="1444874189" x="655566.504616351" y="4946939.9878278775" >
		</node>
		<node id="1444874190" x="655551.9414571776" y="4946940.915325829" >
		</node>
		<node id="1444874192" x="655729.735038874" y="4946949.655796144" >
		</node>
		<node id="1444874194" x="655778.9232402947" y="4946951.430809479" >
		</node>
		<node id="1444874195" x="655727.994268975" y="4946950.458542893" >
		</node>
		<node id="1444874198" x="655726.5205432624" y="4946951.701197163" >
		</node>
		<node id="1444874199" x="655778.4503295813" y="4946954.264746574" >
		</node>
		<node id="1444874200" x="655725.756071236" y="4946953.138782586" >
		</node>
		<node id="1444874201" x="655538.4897283328" y="4946948.727319527" >
		</node>
		<node id="1444874202" x="655725.6211978375" y="4946955.113931643" >
		</node>
		<node id="1444874203" x="655777.0717304541" y="4946957.154646333" >
		</node>
		<node id="1444874204" x="655774.3602877026" y="4946958.734226364" >
		</node>
		<node id="1444874205" x="655519.2267994448" y="4946954.087603909" >
		</node>
		<node id="1444874209" x="655524.2218405391" y="4946953.207542625" >
		</node>
		<node id="1444874210" x="655566.2181847395" y="4946957.152979493" >
		</node>
		<node id="1444874211" x="655588.037584817" y="4946962.246552523" >
		</node>
		<node id="1444874213" x="655731.0196337911" y="4946970.7378325965" >
		</node>
		<node id="1444874214" x="655731.9827005123" y="4946972.250406743" >
		</node>
		<node id="1444874215" x="655733.4157764226" y="4946973.3519564755" >
		</node>
		<node id="1444874216" x="655736.9305277137" y="4946973.658980331" >
		</node>
		<node id="1444874219" x="655735.1804391819" y="4946973.861311343" >
		</node>
		<node id="1444874220" x="655571.0453430142" y="4946973.7855141265" >
		</node>
		<node id="1444874221" x="655581.33587919" y="4946975.689414422" >
		</node>
		<node id="1447327555" x="654372.5599406504" y="4947878.341981488" >
		</node>
		<node id="1450908791" x="655172.470712403" y="4946832.180569204" >
		</node>
		<node id="1450908792" x="655176.7394682011" y="4946839.740973103" >
		</node>
		<node id="1450908793" x="655181.6307787267" y="4946844.170913937" >
		</node>
		<node id="1450908798" x="655465.6316843234" y="4946946.2288633445" >
		</node>
		<node id="1450908799" x="655713.7890101129" y="4947291.945975042" >
		</node>
		<node id="1450908800" x="655629.3430712195" y="4947697.761475142" >
		</node>
		<node id="1450910938" x="655168.1263721256" y="4946832.720867076" >
		</node>
		<node id="1450910943" x="655167.1580600287" y="4946839.677552956" >
		</node>
		<node id="1450910945" x="655165.9184670121" y="4946843.726823186" >
		</node>
		<node id="1450910947" x="655164.4860792964" y="4946847.215735052" >
		</node>
		<node id="1450910948" x="655159.523539464" y="4946850.375340692" >
		</node>
		<node id="1450910949" x="655196.1438856777" y="4946847.642738834" >
		</node>
		<node id="1450910952" x="655131.3390941685" y="4946858.590129467" >
		</node>
		<node id="1450910959" x="655064.3961590425" y="4946860.139499033" >
		</node>
		<node id="1461486066" x="655247.5843346925" y="4946832.306883821" >
		</node>
		<node id="1461486069" x="655249.3935151021" y="4946832.6171099525" >
		</node>
		<node id="1461486070" x="655244.6903357105" y="4946832.904212937" >
		</node>
		<node id="1461486072" x="655242.3810853465" y="4946833.92683381" >
		</node>
		<node id="1461486078" x="655239.5867144435" y="4946835.660244908" >
		</node>
		<node id="1461486079" x="655258.8952242228" y="4946836.657751037" >
		</node>
		<node id="1461486080" x="655260.5165766436" y="4946838.841828221" >
		</node>
		<node id="1461486081" x="655239.3081617965" y="4946838.9990355875" >
		</node>
		<node id="1461486082" x="655243.4038199505" y="4946839.5642660875" >
		</node>
		<node id="1461486084" x="655235.9320615318" y="4946839.851533278" >
		</node>
		<node id="1461486086" x="655260.4099022548" y="4946840.639824422" >
		</node>
		<node id="1461486089" x="655260.017461039" y="4946842.775504395" >
		</node>
		<node id="1461486091" x="655251.2312861807" y="4946842.63104023" >
		</node>
		<node id="1461486093" x="655254.2833665385" y="4946844.038135262" >
		</node>
		<node id="1461486099" x="655257.5312765148" y="4946846.539165673" >
		</node>
		<node id="1461486100" x="655256.8891091753" y="4946847.512929245" >
		</node>
		<node id="1461486116" x="655250.9090549791" y="4946855.0493820775" >
		</node>
		<node id="1467556647" x="655173.4086224162" y="4946378.595859478" >
		</node>
		<node id="1467556649" x="655172.1687927848" y="4946386.946455264" >
		</node>
		<node id="1467556659" x="655164.2365367818" y="4946404.405866178" >
		</node>
		<node id="1467556665" x="655156.756807278" y="4946408.63872266" >
		</node>
		<node id="1467559525" x="655177.0075484997" y="4946420.006195749" >
		</node>
		<node id="1476164942" x="653871.2757358496" y="4947184.973415314" >
		</node>
		<node id="1476164945" x="653871.5856646552" y="4947186.614623466" >
		</node>
		<node id="1476164946" x="653871.276375961" y="4947189.941593673" >
		</node>
		<node id="1476164947" x="653858.262006775" y="4947190.165090108" >
		</node>
		<node id="1476164948" x="653870.6730248623" y="4947191.29429993" >
		</node>
		<node id="1476164949" x="653859.9402902694" y="4947191.6388298245" >
		</node>
		<node id="1476164953" x="653861.7760812833" y="4947192.827345806" >
		</node>
		<node id="1476164955" x="653866.3490938519" y="4947193.992146471" >
		</node>
		<node id="1476164957" x="654082.7456912193" y="4947202.217917411" >
		</node>
		<node id="1476164959" x="654058.2824670282" y="4947206.535914522" >
		</node>
		<node id="1476164961" x="654106.6138437294" y="4947209.544902625" >
		</node>
		<node id="1476164963" x="654127.4565447927" y="4947226.313784618" >
		</node>
		<node id="1476164965" x="653931.0037755219" y="4947300.586462125" >
		</node>
		<node id="1476164966" x="653911.6069214593" y="4947317.007122048" >
		</node>
		<node id="1476164968" x="653900.3146381909" y="4947318.8720383085" >
		</node>
		<node id="1476164970" x="653930.737126898" y="4947320.097110309" >
		</node>
		<node id="1476164972" x="653927.7390002683" y="4947323.4155753665" >
		</node>
		<node id="1476164987" x="653788.1520487193" y="4947411.884962553" >
		</node>
		<node id="1476164995" x="653786.8550744746" y="4947426.047243297" >
		</node>
		<node id="1785813511" x="652322.1642588013" y="4946094.476460382" >
		</node>
		<node id="1785841890" x="654454.3054266183" y="4946020.217817735" >
		</node>
		<node id="1786712256" x="652652.2164366066" y="4945990.032587305" >
		</node>
		<node id="1786712257" x="653566.4933478046" y="4946239.418576889" >
		</node>
		<node id="1786899256" x="653043.3386358314" y="4946773.200112548" >
		</node>
		<node id="1786899257" x="653068.4020144907" y="4946804.180626616" >
		</node>
		<node id="1786899260" x="653368.7987733597" y="4947148.03845792" >
		</node>
		<node id="1911634226" x="653182.9219841416" y="4946133.507591966" >
		</node>
		<node id="1911634227" x="653187.2337862563" y="4946136.021630999" >
		</node>
		<node id="1911634231" x="653158.4383830917" y="4946103.407432454" >
		</node>
		<node id="1942501332" x="653586.3699480734" y="4945965.909579275" >
		</node>
		<node id="1942501342" x="653542.6503548461" y="4946008.828109822" >
		</node>
		<node id="1942501347" x="653918.1350257715" y="4946022.373404823" >
		</node>
		<node id="1942501361" x="653960.7078438957" y="4946073.980543325" >
		</node>
		<node id="1942501364" x="653966.8673697348" y="4946078.8509431295" >
		</node>
		<node id="1942501368" x="653975.6644689746" y="4946097.221563491" >
		</node>
		<node id="1942501371" x="653982.1894057116" y="4946119.383651987" >
		</node>
		<node id="1942501377" x="653396.2764528801" y="4946123.964633805" >
		</node>
		<node id="1942501382" x="653984.2168468527" y="4946142.505558905" >
		</node>
		<node id="1942501386" x="654004.5044745681" y="4946159.427321786" >
		</node>
		<node id="1942501388" x="653352.3573767691" y="4946155.998620822" >
		</node>
		<node id="1942501403" x="654014.6629170782" y="4946174.262715409" >
		</node>
		<node id="1942501410" x="654013.7915572446" y="4946192.18067031" >
		</node>
		<node id="1942501411" x="654022.2483247607" y="4946195.194201231" >
		</node>
		<node id="1942501420" x="653305.1263183963" y="4946185.197937969" >
		</node>
		<node id="1942501444" x="654081.1231893033" y="4946288.69224103" >
		</node>
		<node id="1942501471" x="654415.7734061609" y="4946476.246780218" >
		</node>
		<node id="1942501475" x="654508.1709741452" y="4946515.444751509" >
		</node>
		<node id="1942501482" x="654700.183376618" y="4946605.054346144" >
		</node>
		<node id="1942501498" x="654817.4248349073" y="4946626.0127225695" >
		</node>
		<node id="1942501517" x="655038.1955862053" y="4946762.225024539" >
		</node>
		<node id="1942501520" x="655076.7902730847" y="4946784.335668995" >
		</node>
		<node id="1942501525" x="655148.0197863148" y="4946805.496340156" >
		</node>
		<node id="1942501527" x="655155.3035381006" y="4946814.029413496" >
		</node>
		<node id="1942501528" x="655166.1133171122" y="4946820.090835549" >
		</node>
		<node id="1942501531" x="655234.8071788587" y="4946841.436115317" >
		</node>
		<node id="1942501534" x="655255.447543688" y="4946849.40110511" >
		</node>
		<node id="1942501552" x="655303.1182527051" y="4946899.806697869" >
		</node>
		<node id="1945691568" x="653218.4679971352" y="4946105.586326642" >
		</node>
		<node id="1945691569" x="653209.4722037382" y="4946112.908580505" >
		</node>
		<node id="1945691570" x="653185.4887660929" y="4946135.002196533" >
		</node>
		<node id="1945691571" x="653147.0657917401" y="4946193.6089305775" >
		</node>
		<node id="1945691573" x="652859.0540512976" y="4946208.7955661705" >
		</node>
		<node id="1945691576" x="654210.3765840705" y="4946381.714052994" >
		</node>
		<node id="1945691577" x="655106.9357799345" y="4946792.58390912" >
		</node>
		<node id="1949038968" x="655544.7914269154" y="4947483.913585573" >
		</node>
		<node id="2012904697" x="652868.3258330855" y="4946540.856371943" >
		</node>
		<node id="2012904699" x="652924.0655447015" y="4946554.8458286235" >
		</node>
		<node id="2012904701" x="652872.5573015587" y="4946544.746490635" >
		</node>
		<node id="2012904703" x="652900.2234186466" y="4946553.981457192" >
		</node>
		<node id="2012904705" x="652883.1478501653" y="4946551.454531579" >
		</node>
		<node id="2012904708" x="652961.4726526627" y="4946560.088172503" >
		</node>
		<node id="2021886481" x="652613.6581359885" y="4945939.663060497" >
		</node>
		<node id="2021886526" x="653061.2942727886" y="4945933.801028242" >
		</node>
		<node id="2021886531" x="652619.8058079814" y="4945946.087848897" >
		</node>
		<node id="2021886532" x="652625.8663054073" y="4945955.867113202" >
		</node>
		<node id="2021886533" x="653082.6829356131" y="4945966.995036142" >
		</node>
		<node id="2021886555" x="653156.430112181" y="4946056.5905282535" >
		</node>
		<node id="2021886559" x="652195.9381359973" y="4946043.421729852" >
		</node>
		<node id="2021886576" x="653180.4055691182" y="4946085.711671828" >
		</node>
		<node id="2021886593" x="653207.8914656127" y="4946120.017649493" >
		</node>
		<node id="2021886615" x="652751.4405387847" y="4946218.031888743" >