<?xml version="1.0" encoding="utf-8"?>
<!DOCTYPE population SYSTEM "http://www.matsim.org/files/dtd/population_v6.dtd">

<population>



<!-- ====================================================================== -->

	<person id="0">
		<attributes>
			<attribute name="drivelogic" class="java.lang.String" >org.matsim.contrib.smartcity.agent.CLASSDriverLogicBasic</attribute>
		</attributes>
		<plan selected="yes">
			<activity type="h" link="855" max_dur="07:42:46" >
			</activity>
			<leg mode="car">
			</leg>
			<activity type="w" link="568" start_time="07:47:18" end_time="18:09:55" >
			</activity>
			<leg mode="car">
			</leg>
			<activity type="h" link="855" >
			</activity>
		</plan>

	</person>

<!-- ====================================================================== -->

	<person id="1">
		<attributes>
			<attribute name="drivelogic" class="java.lang.String" >org.matsim.contrib.smartcity.agent.CLASSDriverLogicBasic</attribute>
		</attributes>
		<plan selected="yes">
			<activity type="h" link="1996" max_dur="10:38:05" >
			</activity>
			<leg mode="car">
			</leg>
			<activity type="w" link="232" start_time="10:39:12" end_time="18:09:55" >
			</activity>
			<leg mode="car">
			</leg>
			<activity type="h" link="1996" >
			</activity>
		</plan>

	</person>

<!-- ====================================================================== -->

	<person id="10">
		<attributes>
			<attribute name="drivelogic" class="java.lang.String" >org.matsim.contrib.smartcity.agent.CLASSDriverLogicBasic</attribute>
		</attributes>
		<plan selected="yes">
			<activity type="h" link="1015" max_dur="07:44:36" >
			</activity>
			<leg mode="car">
			</leg>
			<activity type="w" link="1325" start_time="07:45:32" end_time="19:28:04" >
			</activity>
			<leg mode="car">
			</leg>
			<activity type="h" link="1015" >
			</activity>
		</plan>

	</person>

<!-- ====================================================================== -->

	<person id="100">
		<attributes>
			<attribute name="drivelogic" class="java.lang.String" >org.matsim.contrib.smartcity.agent.CLASSDriverLogicBasic</attribute>
		</attributes>
		<plan selected="yes">
			<activity type="h" link="1306" max_dur="08:24:02" >
			</activity>
			<leg mode="car">
			</leg>
			<activity type="w" link="326" start_time="08:27:43" end_time="17:45:34" >
			</activity>
			<leg mode="car">
			</leg>
			<activity type="h" link="1306" >
			</activity>
		</plan>

	</person>

<!-- ====================================================================== -->

	<person id="101">
		<attributes>
			<attribute name="drivelogic" class="java.lang.String" >org.matsim.contrib.smartcity.agent.CLASSDriverLogicBasic</attribute>
		</attributes>
		<plan selected="yes">
			<activity type="h" link="1771" max_dur="08:53:32" >
			</activity>
			<leg mode="car">
			</leg>
			<activity type="w" link="1852" start_time="08:58:05" end_time="18:14:19" >
			</activity>
			<leg mode="car">
			</leg>
			<activity type="h" link="1771" >
			</activity>
		</plan>

	</person>

<!-- ====================================================================== -->

	<person id="102">
		<attributes>
			<attribute name="drivelogic" class="java.lang.String" >org.matsim.contrib.smartcity.agent.CLASSDriverLogicBasic</attribute>
		</attributes>
		<plan selected="yes">
			<activity type="h" link="863" max_dur="08:33:36" >
			</activity>
			<leg mode="car">
			</leg>
			<activity type="w" link="1820" start_time="08:39:17" end_time="16:41:29" >
			</activity>
			<leg mode="car">
			</leg>
			<activity type="h" link="863" >
			</activity>
		</plan>

	</person>

<!-- ====================================================================== -->

	<person id="103">
		<attributes>
			<attribute name="drivelogic" class="java.lang.String" >org.matsim.contrib.smartcity.agent.CLASSDriverLogicBasic</attribute>
		</attributes>
		<plan selected="yes">
			<activity type="h" link="748" max_dur="09:15:57" >
			</activity>
			<leg mode="car">
			</leg>
			<activity type="w" link="1681" start_time="09:18:43" end_time="17:05:24" >
			</activity>
			<leg mode="car">
			</leg>
			<activity type="h" link="748" >
			</activity>
		</plan>

	</person>

<!-- ====================================================================== -->

	<person id="104">
		<attributes>
			<attribute name="drivelogic" class="java.lang.String" >org.matsim.contrib.smartcity.agent.CLASSDriverLogicBasic</attribute>
		</attributes>
		<plan selected="yes">
			<activity type="h" link="526" max_dur="08:54:35" >
			</activity>
			<leg mode="car">
			</leg>
			<activity type="w" link="1950" start_time="08:56:15" end_time="18:56:49" >
			</activity>
			<leg mode="car">
			</leg>
			<activity type="h" link="526" >
			</activity>
		</plan>

	</person>

<!-- ====================================================================== -->

	<person id="105">
		<attributes>
			<attribute name="drivelogic" class="java.lang.String" >org.matsim.contrib.smartcity.agent.CLASSDriverLogicBasic</attribute>
		</attributes>
		<plan selected="yes">
			<activity type="h" link="1966" max_dur="08:21:45" >
			</activity>
			<leg mode="car">
			</leg>
			<activity type="w" link="1960" start_time="08:24:51" end_time="19:06:17" >
			</activity>
			<leg mode="car">
			</leg>
			<activity type="h" link="1966" >
			</activity>
		</plan>

	</person>

<!-- ====================================================================== -->

	<person id="106">
		<attributes>
			<attribute name="drivelogic" class="java.lang.String" >org.matsim.contrib.smartcity.agent.CLASSDriverLogicBasic</attribute>
		</attributes>
		<plan selected="yes">
			<activity type="h" link="1821" max_dur="08:55:13" >
			</activity>
			<leg mode="car">
			</leg>
			<activity type="w" link="1373" start_time="08:57:09" end_time="16:46:56" >
			</activity>
			<leg mode="car">
			</leg>
			<activity type="h" link="1821" >
			</activity>
		</plan>

	</person>

<!-- ====================================================================== -->

	<person id="107">
		<attributes>
			<attribute name="drivelogic" class="java.lang.String" >org.matsim.contrib.smartcity.agent.CLASSDriverLogicBasic</attribute>
		</attributes>
		<plan selected="yes">
			<activity type="h" link="1377" max_dur="09:05:55" >
			</activity>
			<leg mode="car">
			</leg>
			<activity type="w" link="552" start_time="09:07:09" end_time="17:19:48" >
			</activity>
			<leg mode="car">
			</leg>
			<activity type="h" link="1377" >
			</activity>
		</plan>

	</person>

<!-- ====================================================================== -->

	<person id="108">
		<attributes>
			<attribute name="drivelogic" class="java.lang.String" >org.matsim.contrib.smartcity.agent.CLASSDriverLogicBasic</attribute>
		</attributes>
		<plan selected="yes">
			<activity type="h" link="476" max_dur="10:07:03" >
			</activity>
			<leg mode="car">
			</leg>
			<activity type="w" link="865" start_time="10:13:59" end_time="18:00:07" >
			</activity>
			<leg mode="car">
			</leg>
			<activity type="h" link="476" >
			</activity>
		</plan>

	</person>

<!-- ====================================================================== -->

	<person id="109">
		<attributes>
			<attribute name="drivelogic" class="java.lang.String" >org.matsim.contrib.smartcity.agent.CLASSDriverLogicBasic</attribute>
		</attributes>
		<plan selected="yes">
			<activity type="h" link="1335" max_dur="09:11:12" >
			</activity>
			<leg mode="car">
			</leg>
			<activity type="w" link="841" start_time="09:17:55" end_time="20:03:46" >
			</activity>
			<leg mode="car">
			</leg>
			<activity type="h" link="1335" >
			</activity>
		</plan>

	</person>

<!-- ====================================================================== -->

	<person id="11">
		<attributes>
			<attribute name="drivelogic" class="java.lang.String" >org.matsim.contrib.smartcity.agent.CLASSDriverLogicBasic</attribute>
		</attributes>
		<plan selected="yes">
			<activity type="h" link="400" max_dur="08:20:07" >
			</activity>
			<leg mode="car">
			</leg>
			<activity type="w" link="1828" start_time="08:23:48" end_time="18:52:36" >
			</activity>
			<leg mode="car">
			</leg>
			<activity type="h" link="400" >
			</activity>
		</plan>

	</person>

<!-- ====================================================================== -->

	<person id="110">
		<attributes>
			<attribute name="drivelogic" class="java.lang.String" >org.matsim.contrib.smartcity.agent.CLASSDriverLogicBasic</attribute>
		</attributes>
		<plan selected="yes">
			<activity type="h" link="648" max_dur="09:35:23" >
			</activity>
			<leg mode="car">
			</leg>
			<activity type="w" link="1992" start_time="09:38:01" end_time="18:21:26" >
			</activity>
			<leg mode="car">
			</leg>
			<activity type="h" link="648" >
			</activity>
		</plan>

	</person>

<!-- ====================================================================== -->

	<person id="111">
		<attributes>
			<attribute name="drivelogic" class="java.lang.String" >org.matsim.contrib.smartcity.agent.CLASSDriverLogicBasic</attribute>
		</attributes>
		<plan selected="yes">
			<activity type="h" link="152" max_dur="09:51:33" >
			</activity>
			<leg mode="car">
			</leg>
			<activity type="w" link="388" start_time="09:54:13" end_time="19:34:33" >
			</activity>
			<leg mode="car">
			</leg>
			<activity type="h" link="152" >
			</activity>
		</plan>

	</person>

<!-- ====================================================================== -->

	<person id="112">
		<attributes>
			<attribute name="drivelogic" class="java.lang.String" >org.matsim.contrib.smartcity.agent.CLASSDriverLogicBasic</attribute>
		</attributes>
		<plan selected="yes">
			<activity type="h" link="143" max_dur="08:47:26" >
			</activity>
			<leg mode="car">
			</leg>
			<activity type="w" link="1824" start_time="08:48:35" end_time="18:05:08" >
			</activity>
			<leg mode="car">
			</leg>
			<activity type="h" link="143" >
			</activity>
		</plan>

	</person>

<!-- ====================================================================== -->

	<person id="113">
		<attributes>
			<attribute name="drivelogic" class="java.lang.String" >org.matsim.contrib.smartcity.agent.CLASSDriverLogicBasic</attribute>
		</attributes>
		<plan selected="yes">
			<activity type="h" link="1723" max_dur="08:10:29" >
			</activity>
			<leg mode="car">
			</leg>
			<activity type="w" link="203" start_time="08:19:45" end_time="19:12:08" >
			</activity>
			<leg mode="car">
			</leg>
			<activity type="h" link="1723" >
			</activity>
		</plan>

	</person>

<!-- ====================================================================== -->

	<person id="114">
		<attributes>
			<attribute name="drivelogic" class="java.lang.String" >org.matsim.contrib.smartcity.agent.CLASSDriverLogicBasic</attribute>
		</attributes>
		<plan selected="yes">
			<activity type="h" link="524" max_dur="08:37:51" >
			</activity>
			<leg mode="car">
			</leg>
			<activity type="w" link="1214" start_time="08:44:31" end_time="18:15:33" >
			</activity>
			<leg mode="car">
			</leg>
			<activity type="h" link="524" >
			</activity>
		</plan>

	</person>

<!-- ====================================================================== -->

	<person id="115">
		<attributes>
			<attribute name="drivelogic" class="java.lang.String" >org.matsim.contrib.smartcity.agent.CLASSDriverLogicBasic</attribute>
		</attributes>
		<plan selected="yes">
			<activity type="h" link="741" max_dur="08:17:57" >
			</activity>
			<leg mode="car">
			</leg>
			<activity type="w" link="1813" start_time="08:20:53" end_time="18:36:20" >
			</activity>
			<leg mode="car">
			</leg>
			<activity type="h" link="741" >
			</activity>
		</plan>

	</person>

<!-- ====================================================================== -->

	<person id="116">
		<attributes>
			<attribute name="drivelogic" class="java.lang.String" >org.matsim.contrib.smartcity.agent.CLASSDriverLogicBasic</attribute>
		</attributes>
		<plan selected="yes">
			<activity type="h" link="520" max_dur="08:27:08" >
			</activity>
			<leg mode="car">
			</leg>
			<activity type="w" link="1757" start_time="08:37:56" end_time="17:51:20" >
			</activity>
			<leg mode="car">
			</leg>
			<activity type="h" link="520" >
			</activity>
		</plan>

	</person>

<!-- ====================================================================== -->

	<person id="117">
		<attributes>
			<attribute name="drivelogic" class="java.lang.String" >org.matsim.contrib.smartcity.agent.CLASSDriverLogicBasic</attribute>
		</attributes>
		<plan selected="yes">
			<activity type="h" link="158" max_dur="08:09:58" >
			</activity>
			<leg mode="car">
			</leg>
			<activity type="w" link="1074" start_time="08:10:49" end_time="18:37:57" >
			</activity>
			<leg mode="car">
			</leg>
			<activity type="h" link="158" >
			</activity>
		</plan>

	</person>

<!-- ====================================================================== -->

	<person id="118">
		<attributes>
			<attribute name="drivelogic" class="java.lang.String" >org.matsim.contrib.smartcity.agent.CLASSDriverLogicBasic</attribute>
		</attributes>
		<plan selected="yes">
			<activity type="h" link="1667" max_dur="08:23:40" >
			</activity>
			<leg mode="car">
			</leg>
			<activity type="w" link="1815" start_time="08:28:15" end_time="17:26:57" >
			</activity>
			<leg mode="car">
			</leg>
			<activity type="h" link="1667" >
			</activity>
		</plan>

	</person>

<!-- ====================================================================== -->

	<person id="119">
		<attributes>
			<attribute name="drivelogic" class="java.lang.String" >org.matsim.contrib.smartcity.agent.CLASSDriverLogicBasic</attribute>
		</attributes>
		<plan selected="yes">
			<activity type="h" link="682" max_dur="09:01:13" >
			</activity>
			<leg mode="car">
			</leg>
			<activity type="w" link="950" start_time="09:03:06" end_time="19:29:03" >
			</activity>
			<leg mode="car">
			</leg>
			<activity type="h" link="682" >
			</activity>
		</plan>

	</person>

<!-- ====================================================================== -->

	<person id="12">
		<attributes>
			<attribute name="drivelogic" class="java.lang.String" >org.matsim.contrib.smartcity.agent.CLASSDriverLogicBasic</attribute>
		</attributes>
		<plan selected="yes">
			<activity type="h" link="195" max_dur="10:03:35" >
			</activity>
			<leg mode="car">
			</leg>
			<activity type="w" link="909" start_time="10:10:17" end_time="18:14:06" >
			</activity>
			<leg mode="car">
			</leg>
			<activity type="h" link="195" >
			</activity>
		</plan>

	</person>

<!-- ====================================================================== -->

	<person id="120">
		<attributes>
			<attribute name="drivelogic" class="java.lang.String" >org.matsim.contrib.smartcity.agent.CLASSDriverLogicBasic</attribute>
		</attributes>
		<plan selected="yes">
			<activity type="h" link="1847" max_dur="08:20:17" >
			</activity>
			<leg mode="car">
			</leg>
			<activity type="w" link="416" start_time="08:24:28" end_time="18:39:41" >
			</activity>
			<leg mode="car">
			</leg>
			<activity type="h" link="1847" >
			</activity>
		</plan>

	</person>

<!-- ====================================================================== -->

	<person id="121">
		<attributes>
			<attribute name="drivelogic" class="java.lang.String" >org.matsim.contrib.smartcity.agent.CLASSDriverLogicBasic</attribute>
		</attributes>
		<plan selected="yes">
			<activity type="h" link="814" max_dur="09:24:10" >
			</activity>
			<leg mode="car">
			</leg>
			<activity type="w" link="1345" start_time="09:27:12" end_time="17:32:04" >
			</activity>
			<leg mode="car">
			</leg>
			<activity type="h" link="814" >
			</activity>
		</plan>

	</person>

<!-- ====================================================================== -->

	<person id="122">
		<attributes>
			<attribute name="drivelogic" class="java.lang.String" >org.matsim.contrib.smartcity.agent.CLASSDriverLogicBasic</attribute>
		</attributes>
		<plan selected="yes">
			<activity type="h" link="416" max_dur="08:04:15" >
			</activity>
			<leg mode="car">
			</leg>
			<activity type="w" link="1923" start_time="08:12:44" end_time="18:03:37" >
			</activity>
			<leg mode="car">
			</leg>
			<activity type="h" link="416" >
			</activity>
		</plan>

	</person>

<!-- ====================================================================== -->

	<person id="123">
		<attributes>
			<attribute name="drivelogic" class="java.lang.String" >org.matsim.contrib.smartcity.agent.CLASSDriverLogicBasic</attribute>
		</attributes>
		<plan selected="yes">
			<activity type="h" link="1532" max_dur="09:27:11" >
			</activity>
			<leg mode="car">
			</leg>
			<activity type="w" link="1096" start_time="09:29:56" end_time="18:27:54" >
			</activity>
			<leg mode="car">
			</leg>
			<activity type="h" link="1532" >
			</activity>
		</plan>

	</person>

<!-- ====================================================================== -->

	<person id="124">
		<attributes>
			<attribute name="drivelogic" class="java.lang.String" >org.matsim.contrib.smartcity.agent.CLASSDriverLogicBasic</attribute>
		</attributes>
		<plan selected="yes">
			<activity type="h" link="658" max_dur="11:15:38" >
			</activity>
			<leg mode="car">
			</leg>
			<activity type="w" link="1126" start_time="11:17:22" end_time="18:22:15" >
			</activity>
			<leg mode="car">
			</leg>
			<activity type="h" link="658" >
			</activity>
		</plan>

	</person>

<!-- ====================================================================== -->

	<person id="125">
		<attributes>
			<attribute name="drivelogic" class="java.lang.String" >org.matsim.contrib.smartcity.agent.CLASSDriverLogicBasic</attribute>
		</attributes>
		<plan selected="yes">
			<activity type="h" link="1090" max_dur="09:57:33" >
			</activity>
			<leg mode="car">
			</leg>
			<activity type="w" link="1471" start_time="10:01:15" end_time="18:50:45" >
			</activity>
			<leg mode="car">
			</leg>
			<activity type="h" link="1090" >
			</activity>
		</plan>

	</person>

<!-- ====================================================================== -->

	<person id="126">
		<attributes>
			<attribute name="drivelogic" class="java.lang.String" >org.matsim.contrib.smartcity.agent.CLASSDriverLogicBasic</attribute>
		</attributes>
		<plan selected="yes">
			<activity type="h" link="1759" max_dur="09:58:38" >
			</activity>
			<leg mode="car">
			</leg>
			<activity type="w" link="2120" start_time="10:07:32" end_time="17:30:24" >
			</activity>
			<leg mode="car">
			</leg>
			<activity type="h" link="1759" >
			</activity>
		</plan>

	</person>

<!-- ====================================================================== -->

	<person id="127">
		<attributes>
			<attribute name="drivelogic" class="java.lang.String" >org.matsim.contrib.smartcity.agent.CLASSDriverLogicBasic</attribute>
		</attributes>
		<plan selected="yes">
			<activity type="h" link="1187" max_dur="07:52:11" >
			</activity>
			<leg mode="car">
			</leg>
			<activity type="w" link="1671" start_time="07:55:30" end_time="18:04:15" >
			</activity>
			<leg mode="car">
			</leg>
			<activity type="h" link="1187" >
			</activity>
		</plan>

	</person>

<!-- ====================================================================== -->

	<person id="128">
		<attributes>
			<attribute name="drivelogic" class="java.lang.String" >org.matsim.contrib.smartcity.agent.CLASSDriverLogicBasic</attribute>
		</attributes>
		<plan selected="yes">
			<activity type="h" link="1265" max_dur="09:27:38" >
			</activity>
			<leg mode="car">
			</leg>
			<activity type="w" link="623" start_time="09:34:35" end_time="18:06:08" >
			</activity>
			<leg mode="car">
			</leg>
			<activity type="h" link="1265" >
			</activity>
		</plan>

	</person>

<!-- ====================================================================== -->

	<person id="129">
		<attributes>
			<attribute name="drivelogic" class="java.lang.String" >org.matsim.contrib.smartcity.agent.CLASSDriverLogicBasic</attribute>
		</attributes>
		<plan selected="yes">
			<activity type="h" link="1897" max_dur="08:07:29" >
			</activity>
			<leg mode="car">
			</leg>
			<activity type="w" link="1499" start_time="08:12:44" end_time="17:48:55" >
			</activity>
			<leg mode="car">
			</leg>
			<activity type="h" link="1897" >
			</activity>
		</plan>

	</person>

<!-- ====================================================================== -->

	<person id="13">
		<attributes>
			<attribute name="drivelogic" class="java.lang.String" >org.matsim.contrib.smartcity.agent.CLASSDriverLogicBasic</attribute>
		</attributes>
		<plan selected="yes">
			<activity type="h" link="622" max_dur="07:06:24" >
			</activity>
			<leg mode="car">
			</leg>
			<activity type="w" link="1057" start_time="07:09:32" end_time="19:26:24" >
			</activity>
			<leg mode="car">
			</leg>
			<activity type="h" link="622" >
			</activity>
		</plan>

	</person>

<!-- ====================================================================== -->

	<person id="130">
		<attributes>
			<attribute name="drivelogic" class="java.lang.String" >org.matsim.contrib.smartcity.agent.CLASSDriverLogicBasic</attribute>
		</attributes>
		<plan selected="yes">
			<activity type="h" link="1140" max_dur="08:46:37" >
			</activity>
			<leg mode="car">
			</leg>
			<activity type="w" link="1926" start_time="08:50:09" end_time="18:08:02" >
			</activity>
			<leg mode="car">
			</leg>
			<activity type="h" link="1140" >
			</activity>
		</plan>

	</person>

<!-- ====================================================================== -->

	<person id="131">
		<attributes>
			<attribute name="drivelogic" class="java.lang.String" >org.matsim.contrib.smartcity.agent.CLASSDriverLogicBasic</attribute>
		</attributes>
		<plan selected="yes">
			<activity type="h" link="514" max_dur="08:40:04" >
			</activity>
			<leg mode="car">
			</leg>
			<activity type="w" link="612" start_time="08:43:18" end_time="17:14:11" >
			</activity>
			<leg mode="car">
			</leg>
			<activity type="h" link="514" >
			</activity>
		</plan>

	</person>

<!-- ====================================================================== -->

	<person id="132">
		<attributes>
			<attribute name="drivelogic" class="java.lang.String" >org.matsim.contrib.smartcity.agent.CLASSDriverLogicBasic</attribute>
		</attributes>
		<plan selected="yes">
			<activity type="h" link="1848" max_dur="08:19:12" >
			</activity>
			<leg mode="car">
			</leg>
			<activity type="w" link="809" start_time="08:21:38" end_time="18:14:57" >
			</activity>
			<leg mode="car">
			</leg>
			<activity type="h" link="1848" >
			</activity>
		</plan>

	</person>

<!-- ====================================================================== -->

	<person id="133">
		<attributes>
			<attribute name="drivelogic" class="java.lang.String" >org.matsim.contrib.smartcity.agent.CLASSDriverLogicBasic</attribute>
		</attributes>
		<plan selected="yes">
			<activity type="h" link="1617" max_dur="08:56:20" >
			</activity>
			<leg mode="car">
			</leg>
			<activity type="w" link="1121" start_time="08:56:49" end_time="16:31:40" >
			</activity>
			<leg mode="car">
			</leg>
			<activity type="h" link="1617" >
			</activity>
		</plan>

	</person>

<!-- ====================================================================== -->

	<person id="134">
		<attributes>
			<attribute name="drivelogic" class="java.lang.String" >org.matsim.contrib.smartcity.agent.CLASSDriverLogicBasic</attribute>
		</attributes>
		<plan selected="yes">
			<activity type="h" link="595" max_dur="08:06:13" >
			</activity>
			<leg mode="car">
			</leg>
			<activity type="w" link="1156" start_time="08:10:17" end_time="16:13:02" >
			</activity>
			<leg mode="car">
			</leg>
			<activity type="h" link="595" >
			</activity>
		</plan>

	</person>

<!-- ====================================================================== -->

	<person id="135">
		<attributes>
			<attribute name="drivelogic" class="java.lang.String" >org.matsim.contrib.smartcity.agent.CLASSDriverLogicBasic</attribute>
		</attributes>
		<plan selected="yes">
			<activity type="h" link="1516" max_dur="08:56:54" >
			</activity>
			<leg mode="car">
			</leg>
			<activity type="w" link="1933" start_time="09:01:09" end_time="17:10:37" >
			</activity>
			<leg mode="car">
			</leg>
			<activity type="h" link="1516" >
			</activity>
		</plan>

	</person>

<!-- ====================================================================== -->

	<person id="136">
		<attributes>
			<attribute name="drivelogic" class="java.lang.String" >org.matsim.contrib.smartcity.agent.CLASSDriverLogicBasic</attribute>
		</attributes>
		<plan selected="yes">
			<activity type="h" link="2169" max_dur="07:21:33" >
			</activity>
			<leg mode="car">
			</leg>
			<activity type="w" link="2168" start_time="07:25:56" end_time="16:51:34" >
			</activity>
			<leg mode="car">
			</leg>
			<activity type="h" link="2169" >
			</activity>
		</plan>

	</person>

<!-- ====================================================================== -->

	<person id="137">
		<attributes>
			<attribute name="drivelogic" class="java.lang.String" >org.matsim.contrib.smartcity.agent.CLASSDriverLogicBasic</attribute>
		</attributes>
		<plan selected="yes">
			<activity type="h" link="860" max_dur="09:26:52" >
			</activity>
			<leg mode="car">
			</leg>
			<activity type="w" link="651" start_time="09:34:46" end_time="16:56:13" >
			</activity>
			<leg mode="car">
			</leg>
			<activity type="h" link="860" >
			</activity>
		</plan>

	</person>

<!-- ====================================================================== -->

	<person id="138">
		<attributes>
			<attribute name="drivelogic" class="java.lang.String" >org.matsim.contrib.smartcity.agent.CLASSDriverLogicBasic</attribute>
		</attributes>
		<plan selected="yes">
			<activity type="h" link="1688" max_dur="09:17:29" >
			</activity>
			<leg mode="car">
			</leg>
			<activity type="w" link="2177" start_time="09:23:17" end_time="17:05:00" >
			</activity>
			<leg mode="car">
			</leg>
			<activity type="h" link="1688" >
			</activity>
		</plan>

	</person>

<!-- ====================================================================== -->

	<person id="139">
		<attributes>
			<attribute name="drivelogic" class="java.lang.String" >org.matsim.contrib.smartcity.agent.CLASSDriverLogicBasic</attribute>
		</attributes>
		<plan selected="yes">
			<activity type="h" link="2089" max_dur="10:33:35" >
			</activity>
			<leg mode="car">
			</leg>
			<activity type="w" link="799" start_time="10:41:50" end_time="19:24:09" >
			</activity>
			<leg mode="car">
			</leg>
			<activity type="h" link="2089" >
			</activity>
		</plan>

	</person>

<!-- ====================================================================== -->

	<person id="14">
		<attributes>
			<attribute name="drivelogic" class="java.lang.String" >org.matsim.contrib.smartcity.agent.CLASSDriverLogicBasic</attribute>
		</attributes>
		<plan selected="yes">
			<activity type="h" link="461" max_dur="09:14:02" >
			</activity>
			<leg mode="car">
			</leg>
			<activity type="w" link="1784" start_time="09:17:45" end_time="19:02:40" >
			</activity>
			<leg mode="car">
			</leg>
			<activity type="h" link="461" >
			</activity>
		</plan>

	</person>

<!-- ====================================================================== -->

	<person id="140">
		<attributes>
			<attribute name="drivelogic" class="java.lang.String" >org.matsim.contrib.smartcity.agent.CLASSDriverLogicBasic</attribute>
		</attributes>
		<plan selected="yes">
			<activity type="h" link="1213" max_dur="08:10:54" >
			</activity>
			<leg mode="car">
			</leg>
			<activity type="w" link="1844" start_time="08:17:38" end_time="17:27:45" >
			</activity>
			<leg mode="car">
			</leg>
			<activity type="h" link="1213" >
			</activity>
		</plan>

	</person>

<!-- ====================================================================== -->

	<person id="141">
		<attributes>
			<attribute name="drivelogic" class="java.lang.String" >org.matsim.contrib.smartcity.agent.CLASSDriverLogicBasic</attribute>
		</attributes>
		<plan selected="yes">
			<activity type="h" link="720" max_dur="07:49:55" >
			</activity>
			<leg mode="car">
			</leg>
			<activity type="w" link="894" start_time="08:00:29" end_time="18:50:20" >
			</activity>
			<leg mode="car">
			</leg>
			<activity type="h" link="720" >
			</activity>
		</plan>

	</person>

<!-- ====================================================================== -->

	<person id="142">
		<attributes>
			<attribute name="drivelogic" class="java.lang.String" >org.matsim.contrib.smartcity.agent.CLASSDriverLogicBasic</attribute>
		</attributes>
		<plan selected="yes">
			<activity type="h" link="2060" max_dur="09:40:30" >
			</activity>
			<leg mode="car">
			</leg>
			<activity type="w" link="44" start_time="09:46:52" end_time="16:49:17" >
			</activity>
			<leg mode="car">
			</leg>
			<activity type="h" link="2060" >
			</activity>
		</plan>

	</person>

<!-- ====================================================================== -->

	<person id="143">
		<attributes>
			<attribute name="drivelogic" class="java.lang.String" >org.matsim.contrib.smartcity.agent.CLASSDriverLogicBasic</attribute>
		</attributes>
		<plan selected="yes">
			<activity type="h" link="1856" max_dur="09:05:26" >
			</activity>
			<leg mode="car">
			</leg>
			<activity type="w" link="376" start_time="09:10:08" end_time="19:24:17" >
			</activity>
			<leg mode="car">
			</leg>
			<activity type="h" link="1856" >
			</activity>
		</plan>

	</person>

<!-- ====================================================================== -->

	<person id="144">
		<attributes>
			<attribute name="drivelogic" class="java.lang.String" >org.matsim.contrib.smartcity.agent.CLASSDriverLogicBasic</attribute>
		</attributes>
		<plan selected="yes">
			<activity type="h" link="607" max_dur="10:35:38" >
			</activity>
			<leg mode="car">
			</leg>