<?xml version="1.0" encoding="UTF-8"?>
<!DOCTYPE network SYSTEM "http://www.matsim.org/files/dtd/network_v2.dtd">
<network>

<!-- ====================================================================== -->

	<nodes>
		<node id="1076629757" x="177374.17900291434" y="4953027.680005782" >
		</node>
		<node id="1076629758" x="177376.20216558885" y="4953034.282824192" >
		</node>
		<node id="1076629761" x="177375.83187828725" y="4953041.1835038485" >
		</node>
		<node id="1076629764" x="177359.71571630915" y="4953056.343948218" >
		</node>
		<node id="1076629766" x="177352.77471208794" y="4953056.301283075" >
		</node>
		<node id="1076629767" x="177346.2641129649" y="4953053.898500694" >
		</node>
		<node id="1076629769" x="177338.08209274284" y="4953044.775097473" >
		</node>
		<node id="1076629770" x="177336.41860304557" y="4953038.054074115" >
		</node>
		<node id="1076629771" x="177337.16260044574" y="4953031.1569711985" >
		</node>
		<node id="1076629776" x="177351.62955225748" y="4953017.34847118" >
		</node>
		<node id="1076629777" x="177358.5620136045" y="4953016.901574154" >
		</node>
		<node id="1076629780" x="177365.2248502092" y="4953018.851311688" >
		</node>
		<node id="1076629789" x="177655.46661274682" y="4952706.229889874" >
		</node>
		<node id="1076629791" x="177656.8253464513" y="4952692.854338512" >
		</node>
		<node id="1076629793" x="177661.55490294" y="4952688.241575751" >
		</node>
		<node id="1076629794" x="177671.95741400134" y="4952686.285372738" >
		</node>
		<node id="1076629795" x="177681.0361821368" y="4952691.722880048" >
		</node>
		<node id="1076629797" x="177684.1725092933" y="4952699.929446657" >
		</node>
		<node id="1076629799" x="177678.934455611" y="4952712.184703059" >
		</node>
		<node id="1076629800" x="177667.29086504597" y="4952715.550367186" >
		</node>
		<node id="1359255735" x="177698.6911747246" y="4952568.566406528" >
		</node>
		<node id="1359262854" x="177659.88479401957" y="4952660.696270098" >
		</node>
		<node id="1359262856" x="177642.36988114734" y="4952676.371156436" >
		</node>
		<node id="1419841705" x="177399.50730430405" y="4952993.9181541875" >
		</node>
		<node id="1786899256" x="177343.02483477228" y="4953021.865760028" >
		</node>
		<node id="1786899257" x="177370.32705905044" y="4953050.9468025565" >
		</node>
		<node id="2021886662" x="177662.93870826112" y="4952611.39998608" >
		</node>
		<node id="2023217212" x="177808.22395562514" y="4952459.152186226" >
		</node>
		<node id="2023217231" x="177690.13708890614" y="4952563.291967419" >
		</node>
		<node id="2023217236" x="177729.87960241572" y="4952586.018067543" >
		</node>
		<node id="2023217239" x="177531.77125618618" y="4952603.521077984" >
		</node>
		<node id="2023217240" x="177720.24667848548" y="4952594.951476338" >
		</node>
		<node id="2023217246" x="177751.23068911047" y="4952649.6971336035" >
		</node>
		<node id="2023217247" x="177887.83977829217" y="4952676.975042895" >
		</node>
		<node id="2036365615" x="177566.01825842436" y="4952586.887307672" >
		</node>
		<node id="2036822385" x="177518.2542799957" y="4952614.575471063" >
		</node>
		<node id="2036822398" x="177711.37785185338" y="4952778.962228603" >
		</node>
		<node id="2036822403" x="177584.28122201428" y="4952820.824886476" >
		</node>
		<node id="2036822414" x="177501.72875014116" y="4952903.226508724" >
		</node>
		<node id="2036822451" x="177239.39675597765" y="4952990.299427442" >
		</node>
		<node id="2036822466" x="177387.34932288062" y="4953007.967436013" >
		</node>
		<node id="2036822467" x="177379.3591847818" y="4953006.496083219" >
		</node>
		<node id="2036822471" x="177323.93337879016" y="4953004.2342203865" >
		</node>
		<node id="2036822473" x="177369.5432839666" y="4953013.178635971" >
		</node>
		<node id="2036822475" x="177383.64374990505" y="4953011.749710349" >
		</node>
		<node id="2036822478" x="177362.64328375016" y="4953018.089509386" >
		</node>
		<node id="2036822479" x="177346.46500294306" y="4953019.611254007" >
		</node>
		<node id="2036822480" x="177377.67252690502" y="4953019.498397717" >
		</node>
		<node id="2036822490" x="177337.22580492363" y="4953041.3211555155" >
		</node>
		<node id="2036822491" x="177374.0956802693" y="4953044.611177502" >
		</node>
		<node id="2036822494" x="177372.46048461593" y="4953047.833349843" >
		</node>
		<node id="2036822495" x="177334.25113966077" y="4953051.770899751" >
		</node>
		<node id="2036822496" x="177375.6499489179" y="4953051.215169956" >
		</node>
		<node id="2036822497" x="177348.5884726686" y="4953054.76224738" >
		</node>
		<node id="2036822498" x="177361.8083298487" y="4953055.59340449" >
		</node>
		<node id="2036822499" x="177340.54733640433" y="4953058.627734366" >
		</node>
		<node id="2036822502" x="177377.2752677902" y="4953058.127423014" >
		</node>
		<node id="2036822505" x="177326.82184313564" y="4953061.830939441" >
		</node>
		<node id="2036822510" x="177370.5511562808" y="4953062.739956691" >
		</node>
		<node id="2036822512" x="177331.7162024757" y="4953065.450424346" >
		</node>
		<node id="2036822513" x="177317.6933226764" y="4953074.62638951" >
		</node>
		<node id="2036822528" x="177252.99231313932" y="4953107.796781464" >
		</node>
		<node id="2036822540" x="177267.9913393244" y="4953118.138148196" >
		</node>
		<node id="2036822548" x="177236.40625431936" y="4953138.182018355" >
		</node>
		<node id="2036822551" x="177257.4374786549" y="4953148.355219355" >
		</node>
		<node id="2036822576" x="177139.49268846313" y="4953202.175593151" >
		</node>
		<node id="2036822601" x="177051.73542690388" y="4953266.770409618" >
		</node>
		<node id="2036822603" x="177043.80843777244" y="4953272.590576568" >
		</node>
		<node id="2480523072" x="177650.09622971865" y="4952568.8110694615" >
		</node>
		<node id="2480527065" x="177653.72589898808" y="4952577.0263927225" >
		</node>
		<node id="2480527068" x="177665.44064283452" y="4952629.66075195" >
		</node>
		<node id="250854391" x="177580.84067307535" y="4952816.553483893" >
		</node>
		<node id="250854397" x="177664.29692935687" y="4952714.809036414" >
		</node>
		<node id="250854401" x="177662.8389174501" y="4952687.531538271" >
		</node>
		<node id="250854404" x="177656.3102840981" y="4952584.525540094" >
		</node>
		<node id="250854407" x="177641.68643607287" y="4952552.582667652" >
		</node>
		<node id="250854411" x="177670.3800324619" y="4952715.652182825" >
		</node>
		<node id="250854412" x="177683.47272301035" y="4952704.697255013" >
		</node>
		<node id="250854413" x="177683.23235783854" y="4952695.588774969" >
		</node>
		<node id="250857516" x="177633.32349564426" y="4952533.155863301" >
		</node>
		<node id="250857518" x="177562.24362395814" y="4952582.4544187" >
		</node>
		<node id="250857519" x="177482.4074304396" y="4952643.884478649" >
		</node>
		<node id="250857521" x="177414.84050983092" y="4952699.49056568" >
		</node>
		<node id="250857522" x="177262.11347021163" y="4952820.271412504" >
		</node>
		<node id="255396512" x="177269.57660166145" y="4953269.1549465405" >
		</node>
		<node id="255396514" x="177255.00054233964" y="4953126.015387914" >
		</node>
		<node id="2736012182" x="177683.90085560177" y="4952555.407272475" >
		</node>
		<node id="282504829" x="177937.17076170945" y="4953270.148631038" >
		</node>
		<node id="288400466" x="177654.57522888196" y="4952699.047071002" >
		</node>
		<node id="288400509" x="177370.01589152118" y="4953022.153043212" >
		</node>
		<node id="288400512" x="177341.95393879665" y="4953050.517058669" >
		</node>
		<node id="288400515" x="177339.34929263225" y="4953026.247915803" >
		</node>
		<node id="288400516" x="177345.27527039032" y="4953020.138470734" >
		</node>
		<node id="288400573" x="176920.90866513178" y="4953361.0299342945" >
		</node>
		<node id="2976099656" x="177268.34053835523" y="4953254.773112799" >
		</node>
		<node id="2976099657" x="177336.2659044364" y="4953188.366951261" >
		</node>
		<node id="2976099658" x="177414.67066801467" y="4953267.455333881" >
		</node>
		<node id="2976104402" x="177280.497353354" y="4953368.778875272" >
		</node>
		<node id="2976104403" x="177464.22075694194" y="4953229.976931562" >
		</node>
		<node id="309108833" x="177666.6995622036" y="4952646.747500248" >
		</node>
		<node id="309131559" x="177677.79203037557" y="4952688.677726605" >
		</node>
		<node id="309131575" x="177630.21850458207" y="4952763.762116154" >
		</node>
		<node id="309131582" x="177371.51976819528" y="4953049.684452731" >
		</node>
		<node id="309131588" x="177281.30639632366" y="4953108.162247891" >
		</node>
		<node id="309133522" x="177258.60112327267" y="4953162.083638138" >
		</node>
		<node id="3115241412" x="177692.0080917164" y="4952693.3686432" >
		</node>
		<node id="3115241413" x="177709.15422259615" y="4952699.750699443" >
		</node>
		<node id="3115241414" x="177690.80525631842" y="4952700.477891054" >
		</node>
		<node id="3115241415" x="177696.4796042887" y="4952697.911554373" >
		</node>
		<node id="3115241416" x="177694.13799699594" y="4952706.569922728" >
		</node>
		<node id="3115241417" x="177681.97752320673" y="4952708.658450143" >
		</node>
		<node id="3301414197" x="177504.94453974976" y="4952907.453424018" >
		</node>
		<node id="3301414198" x="177516.79359304573" y="4952924.74586749" >
		</node>
		<node id="3301414211" x="177544.35475290247" y="4952992.735522538" >
		</node>
		<node id="3301414229" x="177589.36342239677" y="4953050.576933629" >
		</node>
		<node id="3301414254" x="177633.62598635216" y="4953107.9770085905" >
		</node>
		<node id="3301414461" x="177480.61319873377" y="4953134.33292513" >
		</node>
		<node id="3301414466" x="177473.90905833925" y="4953213.434222942" >
		</node>
		<node id="3301414467" x="177469.00756311446" y="4953213.801756599" >
		</node>
		<node id="3301414468" x="177478.42546824832" y="4953215.379995703" >
		</node>
		<node id="3301414469" x="177464.83776388247" y="4953216.404494274" >
		</node>
		<node id="3301414470" x="177481.5169810388" y="4953219.189926542" >
		</node>
		<node id="3301414471" x="177462.35500251316" y="4953220.637865069" >
		</node>
		<node id="3301414472" x="177482.48057090078" y="4953223.99712796" >
		</node>
		<node id="3301414473" x="177462.13103329943" y="4953225.537843927" >
		</node>
		<node id="3301414474" x="177481.08628905745" y="4953228.699477376" >
		</node>
		<node id="3301414475" x="177477.66138533864" y="4953232.21154435" >
		</node>
		<node id="3301414476" x="177468.1359127799" y="4953232.932738696" >
		</node>
		<node id="3301414477" x="177472.9852631627" y="4953233.748244352" >
		</node>
		<node id="359523577" x="177631.91494903312" y="4952664.231680098" >
		</node>
		<node id="359523890" x="177662.09502030478" y="4952657.523425204" >
		</node>
		<node id="359524441" x="177643.71826156892" y="4952678.063304087" >
		</node>
		<node id="359525496" x="178041.6497437557" y="4953410.682813738" >
		</node>
		<node id="359529731" x="177719.5803665169" y="4952772.90652049" >
		</node>
		<node id="359530216" x="177611.28160752996" y="4952853.897589332" >
		</node>
		<node id="359530343" x="177758.68045380514" y="4952825.130915941" >
		</node>
		<node id="359530535" x="177653.6803961557" y="4952907.226100356" >
		</node>
		<node id="359530578" x="177767.8287070982" y="4952817.958968296" >
		</node>
		<node id="359530749" x="177860.75878014998" y="4952746.713720158" >
		</node>
		<node id="359530751" x="177991.13630033977" y="4952889.997355907" >
		</node>
		<node id="359726698" x="177951.0484333455" y="4953073.995186834" >
		</node>
		<node id="359726889" x="177850.9850773742" y="4953151.442204552" >
		</node>
		<node id="359727005" x="178098.7953808289" y="4953376.783739301" >
		</node>
		<node id="359727006" x="177895.6974865736" y="4953114.754672216" >
		</node>
		<node id="359727008" x="177705.26222181437" y="4952866.897860665" >
		</node>
		<node id="359727215" x="178022.44361946656" y="4953280.012853675" >
		</node>
		<node id="359727628" x="178089.9801642109" y="4953226.875513024" >
		</node>
		<node id="359727630" x="178294.02271350712" y="4953061.004883908" >
		</node>
		<node id="359727631" x="178390.54447309783" y="4953142.318732229" >
		</node>
		<node id="359727829" x="178250.75814464962" y="4953332.353800503" >
		</node>
		<node id="359727831" x="178142.89914126846" y="4953190.103236382" >
		</node>
		<node id="359727832" x="177822.22618164966" y="4952775.252841387" >
		</node>
		<node id="359727835" x="177761.7210237116" y="4952695.020624516" >
		</node>
		<node id="359727836" x="177699.74902992166" y="4952696.211465342" >
		</node>
		<node id="359728130" x="177706.93483366485" y="4952573.355234701" >
		</node>
		<node id="359728413" x="177851.0753487901" y="4952661.972622657" >
		</node>
		<node id="359728414" x="177856.80789325834" y="4952683.179092257" >
		</node>
		<node id="359728415" x="177776.87066787772" y="4952695.010203636" >
		</node>
		<node id="359728637" x="177895.0121675096" y="4952675.43658163" >
		</node>
		<node id="359728638" x="177900.23559634306" y="4952673.0711198365" >
		</node>
		<node id="359728639" x="177904.23973216838" y="4952662.202875223" >
		</node>
		<node id="359729668" x="177961.9775992459" y="4953065.086458724" >
		</node>
		<node id="359729669" x="178016.8140243619" y="4953024.353304661" >
		</node>
		<node id="359729670" x="178083.43455288507" y="4952975.259751007" >
		</node>
		<node id="359729959" x="178238.8893014482" y="4953112.69709527" >
		</node>
		<node id="359730280" x="178314.89719932835" y="4953199.264631036" >
		</node>
		<node id="359730282" x="178302.47305690724" y="4953210.073595599" >
		</node>
		<node id="359730430" x="178195.1847834196" y="4953153.051235329" >
		</node>
		<node id="359730520" x="178302.85184252803" y="4953290.033693205" >
		</node>
		<node id="359731167" x="178245.96014385793" y="4953100.68503184" >
		</node>
		<node id="359731261" x="178176.30927936872" y="4953039.781424028" >
		</node>
		<node id="359731919" x="177250.78695027984" y="4953087.861924117" >
		</node>
		<node id="359732063" x="177264.90881190135" y="4953105.931151657" >
		</node>
		<node id="359739377" x="177806.22011397016" y="4952693.477840912" >
		</node>
		<node id="359740554" x="178172.90968025167" y="4952974.972154364" >
		</node>
		<node id="359740555" x="178191.8017493034" y="4952999.6538892435" >
		</node>
		<node id="359740556" x="178189.11186225252" y="4953030.022418693" >
		</node>
		<node id="359740572" x="178274.5814502234" y="4953076.941128519" >
		</node>
		<node id="359873735" x="177265.26104714454" y="4953225.148931764" >
		</node>
		<node id="359873981" x="177232.95775031572" y="4952887.322058252" >
		</node>
		<node id="359874115" x="177110.0110208831" y="4952942.305868783" >
		</node>
		<node id="359874116" x="177084.87626603182" y="4952940.367654643" >
		</node>
		<node id="359874118" x="177062.90425422578" y="4952947.6256781565" >
		</node>
		<node id="359874119" x="177048.00487720117" y="4952959.140171373" >
		</node>
		<node id="359874120" x="177030.51299293642" y="4952990.317450753" >
		</node>
		<node id="359876677" x="176974.07851656328" y="4953324.156825959" >
		</node>
		<node id="359880469" x="177622.01088692102" y="4952774.32833497" >
		</node>
		<node id="3692251251" x="177299.67315097683" y="4952791.554623702" >
		</node>
		<node id="370043639" x="177341.58899339673" y="4952757.909649319" >
		</node>
		<node id="370043640" x="177332.26020644116" y="4952765.280578291" >
		</node>
		<node id="370304526" x="177254.70067694847" y="4952825.898479483" >
		</node>
		<node id="3857713771" x="177589.81798055547" y="4952827.597405375" >
		</node>
		<node id="3857713772" x="177707.999450462" y="4952975.6390469875" >
		</node>
		<node id="3857713776" x="178036.84826631047" y="4953403.973526797" >
		</node>
		<node id="3857713777" x="177987.27437686606" y="4953339.252659534" >
		</node>
		<node id="3933846167" x="177813.3963567512" y="4952692.017045985" >
		</node>
		<node id="3933846168" x="177802.93017665256" y="4952693.653251295" >
		</node>
		<node id="4078761121" x="177096.6655948928" y="4952939.766502019" >
		</node>
		<node id="4078761122" x="177073.3743740199" y="4952943.059191708" >
		</node>
		<node id="4078761125" x="177055.00827108888" y="4952953.121283742" >
		</node>
		<node id="4078761135" x="177042.03384200245" y="4952966.410334069" >
		</node>
		<node id="4078761138" x="177037.4810723018" y="4952973.431331787" >
		</node>
		<node id="4078764905" x="177047.72575134964" y="4953269.710644069" >
		</node>
		<node id="419087312" x="178195.22892663482" y="4953018.169235152" >
		</node>
		<node id="419107927" x="177904.37891613343" y="4952668.176005869" >
		</node>
		<node id="419107929" x="177717.29834773944" y="4952697.138976705" >
		</node>
		<node id="419107936" x="177649.2123852435" y="4952666.797475842" >
		</node>
		<node id="419107945" x="177688.45051434432" y="4952713.647048933" >
		</node>
		<node id="419107946" x="177702.77412940445" y="4952701.8734221645" >
		</node>
		<node id="420524156" x="177498.33066384296" y="4952898.3739451" >
		</node>
		<node id="420524158" x="177507.9123376814" y="4952912.761807028" >
		</node>
		<node id="420524161" x="177435.8632932002" y="4952959.738741953" >
		</node>
		<node id="420524162" x="177388.71799604478" y="4953005.137226285" >
		</node>
		<node id="420524187" x="177366.24393667816" y="4953054.012981619" >
		</node>
		<node id="420524188" x="177381.05524505983" y="4953069.185958537" >
		</node>
		<node id="420524210" x="177270.1054832682" y="4953130.371313256" >
		</node>
		<node id="420524214" x="177433.70318605285" y="4953115.419131505" >
		</node>
		<node id="420524215" x="177507.00306040858" y="4953203.539119046" >
		</node>
		<node id="420524217" x="177336.2241070111" y="4953062.296160331" >
		</node>
		<node id="420524222" x="177346.57023010444" y="4953072.257910794" >
		</node>
		<node id="420524223" x="177361.77464211173" y="4953083.847604838" >
		</node>
		<node id="420524224" x="177407.7848300315" y="4953118.296344756" >
		</node>
		<node id="420524225" x="177469.5683547579" y="4953176.846164048" >
		</node>
		<node id="420524226" x="177496.72729029512" y="4953201.33555012" >
		</node>
		<node id="420524227" x="177503.34882942028" y="4953203.57701165" >
		</node>
		<node id="420524228" x="177353.76073178818" y="4953067.276804279" >
		</node>
		<node id="420524229" x="177363.35447686038" y="4953068.233616441" >
		</node>
		<node id="420524230" x="177412.64409612096" y="4953108.49853636" >
		</node>
		<node id="420524231" x="177487.04275023082" y="4953177.88803369" >
		</node>
		<node id="420524232" x="177489.38861228822" y="4953187.292193311" >
		</node>
		<node id="420524233" x="177503.5415499141" y="4953199.959259207" >
		</node>
		<node id="420524234" x="177505.40534570965" y="4953200.3560856255" >
		</node>
		<node id="420540633" x="177090.85858109145" y="4953237.762176018" >
		</node>
		<node id="420540658" x="177056.9096069301" y="4953262.958940205" >
		</node>
		<node id="420540662" x="177035.61439760734" y="4953278.7916197525" >
		</node>
		<node id="420540667" x="177021.6071077629" y="4953288.580031306" >
		</node>
		<node id="420540677" x="176978.1212339158" y="4953320.92534162" >
		</node>
		<node id="4540263221" x="177714.21441002446" y="4952776.871727199" >
		</node>
		<node id="4540263222" x="177753.62374528887" y="4952829.08064821" >
		</node>
		<node id="4540263223" x="177945.98130440334" y="4953077.733713863" >
		</node>
		<node id="4540263228" x="178092.875987407" y="4953224.860162685" >
		</node>
		<node id="4540263229" x="177965.53568504698" y="4953062.325290162" >
		</node>
		<node id="4540263230" x="177773.1903784618" y="4952813.749024885" >
		</node>
		<node id="4540263232" x="177676.9507014932" y="4952721.482236724" >
		</node>
		<node id="4540263258" x="177637.04327062413" y="4952755.9042606" >
		</node>
		<node id="4540263264" x="177603.07676167414" y="4952795.475307317" >
		</node>
		<node id="4540263265" x="177654.97935942886" y="4952664.493744302" >
		</node>
		<node id="4540263266" x="177640.79986477783" y="4952666.582977372" >
		</node>
		<node id="4731177012" x="177500.18219993467" y="4953026.057744246" >
		</node>
		<node id="4731177013" x="177528.80809893046" y="4953185.956540768" >
		</node>
		<node id="4731177014" x="177465.96650196804" y="4953146.134478472" >
		</node>
		<node id="4741852274" x="177184.59886646224" y="4953170.730448512" >
		</node>
		<node id="4741852275" x="177276.25735960365" y="4953119.406237685" >
		</node>
		<node id="4741852276" x="177265.82056346483" y="4953136.710569403" >
		</node>
		<node id="4741852277" x="177262.23011476698" y="4953145.81027823" >
		</node>
		<node id="4741852278" x="177260.75503467297" y="4953103.611015051" >
		</node>
		<node id="4741852279" x="177256.87461239332" y="4953098.493154227" >
		</node>
		<node id="4789931572" x="177508.6602707103" y="4953161.005208272" >
		</node>
		<node id="4789931573" x="177541.0986749563" y="4953087.733781812" >
		</node>
		<node id="4789931576" x="177514.7452434632" y="4953156.16863126" >
		</node>
		<node id="5719185235" x="177709.54913089308" y="4952696.83558352" >
		</node>
		<node id="5851983802" x="177245.3757184184" y="4952833.02436626" >
		</node>
		<node id="5851983803" x="177567.2089660673" y="4952588.286645659" >
		</node>
		<node id="5851983806" x="177677.7842601536" y="4952547.371836673" >
		</node>
		<node id="5881180811" x="177649.31930069235" y="4952681.825910897" >
		</node>
		<node id="5881180812" x="177655.81614063593" y="4952685.699677728" >
		</node>
		<node id="5881180814" x="177658.93017722783" y="4952690.276970942" >
		</node>
		<node id="5881180815" x="177655.35213017458" y="4952695.823327266" >
		</node>
		<node id="5881180816" x="177649.35604116792" y="4952687.971219645" >
		</node>
		<node id="5881180817" x="177652.25908640516" y="4952693.41653244" >
		</node>
		<node id="5881180818" x="177674.94953599258" y="4952687.149296219" >
		</node>
		<node id="5881180819" x="177667.3797176769" y="4952666.56923872" >
		</node>
		<node id="5881180820" x="177668.85364506714" y="4952686.050650812" >
		</node>
		<node id="5881180821" x="177665.39038290584" y="4952677.9829182215" >
		</node>
		<node id="5881180822" x="177670.80274293298" y="4952677.9686843725" >
		</node>
		<node id="5881180823" x="177672.70586621726" y="4952682.651016623" >
		</node>
		<node id="5881180824" x="177665.76731229946" y="4952686.48322702" >
		</node>
		<node id="5881180825" x="177664.27957165265" y="4952682.637628249" >
		</node>
		<node id="5881193113" x="177654.6253979875" y="4952701.483377291" >
		</node>
		<node id="5881193114" x="177643.76301448705" y="4952744.9892240735" >
		</node>
		<node id="5881193115" x="177657.5418079173" y="4952709.90137061" >
		</node>
		<node id="5881193116" x="177650.61207089532" y="4952716.773324681" >
		</node>
		<node id="5881193117" x="177653.09165226843" y="4952708.809617794" >
		</node>
		<node id="5881193118" x="177654.8572778763" y="4952725.536971651" >
		</node>
		<node id="5881193119" x="177660.09340856905" y="4952717.858735131" >
		</node>
		<node id="5881193120" x="177660.5657771913" y="4952712.835015751" >
		</node>
		<node id="5881193121" x="177697.6761397377" y="4952704.043472839" >
		</node>
		<node id="5881193122" x="177691.43983642914" y="4952709.522134808" >
		</node>
		<node id="5881193123" x="177685.68735089386" y="4952709.887427465" >
		</node>
		<node id="5881241908" x="177690.2369345653" y="4952716.152533371" >
		</node>
		<node id="5881241909" x="177690.33506191772" y="4952712.70656943" >
		</node>
		<node id="5881241910" x="177675.05112702766" y="4952719.416716868" >
		</node>
		<node id="5881241911" x="177672.92660810595" y="4952717.462659269" >
		</node>
		<node id="5881241912" x="177674.9292354486" y="4952714.589726514" >
		</node>
		<node id="5881248331" x="177666.9161069978" y="4952653.151092223" >
		</node>
		<node id="5881248335" x="177683.12145748275" y="4952705.939774971" >
		</node>
		<node id="5881248336" x="177687.40659242106" y="4952702.295801831" >
		</node>
		<node id="5881298133" x="177655.98935505055" y="4952663.708305501" >
		</node>
		<node id="5881314305" x="177649.57469725353" y="4952733.239806542" >
		</node>
		<node id="5881314306" x="177657.32802727824" y="4952721.215222206" >
		</node>
		<node id="5881314307" x="177645.49841186375" y="4952730.403282394" >
		</node>
		<node id="6055297086" x="177832.53939558234" y="4952650.358803774" >
		</node>
		<node id="6055297101" x="177871.2603234356" y="4952592.455695997" >
		</node>
		<node id="6443125959" x="177476.62783932354" y="4952648.638953363" >
		</node>
		<node id="6452388538" x="177232.28362294042" y="4952851.441510336" >
		</node>
		<node id="6452388539" x="177229.64629268955" y="4952855.604746265" >
		</node>
		<node id="6452388548" x="177262.97500119824" y="4952919.652336742" >
		</node>
		<node id="6452388549" x="177233.37837665027" y="4952846.631586717" >
		</node>
		<node id="6452388551" x="177230.76398387377" y="4952861.740566728" >
		</node>
		<node id="6483892906" x="177233.77360923128" y="4952878.049329526" >
		</node>
		<node id="6483904165" x="177239.6557754496" y="4952839.123585725" >
		</node>
		<node id="6485921797" x="177281.05998326937" y="4952944.327610888" >
		</node>
		<node id="6485921798" x="177237.40138596372" y="4952957.402655597" >
		</node>
		<node id="6485921799" x="177266.9438901125" y="4952956.570782199" >
		</node>
		<node id="6485921800" x="177277.3741706533" y="4952948.186912922" >
		</node>
		<node id="7994883838" x="177589.27298794687" y="4953271.912506432" >
		</node>
		<node id="8872344477" x="177627.649944077" y="4952875.262959412" >
		</node>
		<node id="8887299551" x="177613.3027508394" y="4953300.601104636" >
		</node>
		<node id="8919680413" x="177508.79606521176" y="4953185.665032441" >
		</node>
		<node id="8919680414" x="177527.24368089164" y="4953206.814819323" >
		</node>
		<node id="8919680415" x="177530.9834448577" y="4953202.763645459" >
		</node>
		<node id="8919680416" x="177528.8197181719" y="4953205.589018949" >
		</node>
		<node id="8919720117" x="177526.00482858607" y="4953207.789906963" >
		</node>
		<node id="8919720118" x="177506.32100718247" y="4953188.940286467" >
		</node>
		<node id="8919720119" x="177504.65111433447" y="4953196.874757618" >
		</node>
		<node id="8919720120" x="177532.23435948626" y="4953191.375642281" >
		</node>
		<node id="8919720121" x="177532.90534095478" y="4953195.417941248" >
		</node>
		<node id="8919720122" x="177512.10782255168" y="4953183.227714189" >
		</node>
		<node id="8919720123" x="177515.9814090301" y="4953181.8536594" >
		</node>
		<node id="8919720124" x="177524.078463935" y="4953182.607097262" >
		</node>
		<node id="8919720125" x="177527.62413504103" y="4953184.690514992" >
		</node>
		<node id="8919720126" x="177522.7297645968" y="4953209.211993778" >
		</node>
		<node id="8919720127" x="177519.20525722462" y="4953209.777929687" >
		</node>
		<node id="8919720128" x="177512.29254254606" y="4953208.230313995" >
		</node>
		<node id="8919720129" x="177509.34649610566" y="4953206.2171579385" >
		</node>
		<node id="8919720130" x="177520.08772040776" y="4953181.6372720115" >
		</node>
		<node id="8919720131" x="177530.42083595996" y="4953187.691126789" >
		</node>
		<node id="8919720132" x="177504.8997979366" y="4953192.786488858" >
		</node>
		<node id="8919720134" x="177532.3774843198" y="4953199.486752425" >
		</node>
		<node id="8919720135" x="177515.651631139" y="4953209.44329349" >
		</node>
		<node id="8919720136" x="177504.66048651794" y="4953182.274771507" >
		</node>
		<node id="8919720213" x="177511.1652784936" y="4953207.462584639" >
		</node>
		<node id="9033832562" x="177336.71684713574" y="4953016.045175931" >
		</node>
		<node id="9033834493" x="177333.13851841376" y="4953020.622925127" >
		</node>
		<node id="9033834497" x="177311.03180958173" y="4952986.248602712" >
		</node>
		<node id="9033846005" x="177298.10727230273" y="4952927.438849195" >
		</node>
		<node id="9033846006" x="177303.95482715347" y="4952908.793937895" >
		</node>
		<node id="9033846007" x="177326.57364085905" y="4952844.052812134" >
		</node>
		<node id="9033846008" x="177288.47374268685" y="4952936.974401743" >
		</node>
		<node id="9033846009" x="177295.38857068785" y="4952929.657293033" >
		</node>
		<node id="9038148626" x="177841.66315109975" y="4953150.192715967" >
		</node>
		<node id="9038148627" x="177848.62303746212" y="4953161.281969958" >
		</node>
		<node id="9038148628" x="177839.35302745923" y="4953158.047666085" >
		</node>
		<node id="9038148629" x="177838.87223160535" y="4953155.90013277" >
		</node>
		<node id="9038148630" x="177839.12877006532" y="4953153.715781223" >
		</node>
		<node id="9038148631" x="177840.09465037147" y="4953151.729867696" >
		</node>
		<node id="9038148632" x="177851.83745703875" y="4953154.027764776" >
		</node>
		<node id="9038148633" x="177851.98304025602" y="4953156.147492105" >
		</node>
		<node id="9038148634" x="177851.4497241028" y="4953158.200893483" >
		</node>
		<node id="9038148635" x="177850.2903969756" y="4953159.973742228" >
		</node>
		<node id="9038148636" x="177843.57984810742" y="4953149.261800171" >
		</node>
		<node id="9038148637" x="177845.68894765095" y="4953149.0005803825" >
		</node>
		<node id="9038148638" x="177847.76845574594" y="4953149.420141502" >
		</node>
		<node id="9038148639" x="177849.61001646338" y="4953150.486342738" >
		</node>
		<node id="9038148640" x="177846.5372384542" y="4953162.009742304" >
		</node>
		<node id="9038148641" x="177844.3276193429" y="4953162.008714917" >
		</node>
		<node id="9038148642" x="177842.2489949437" y="4953161.288436181" >
		</node>
		<node id="9038148643" x="177840.52724045503" y="4953159.9155798005" >
		</node>
		<node id="9038234480" x="177617.1710672974" y="4952770.52772484" >
		</node>
		<node id="9038234482" x="177494.87269649183" y="4952892.800525262" >
		</node>
		<node id="9038234483" x="177577.36348457483" y="4952811.548927901" >