<routes xmlns:xsi="http://www.w3.org/2001/XMLSchema-instance" xsi:noNamespaceSchemaLocation="http://sumo.dlr.de/xsd/routes_file.xsd">
    <vType id="car" vClass="passenger" />
    <vType id="bicycle" vClass="bicycle" />
    <route id="r_1" edges="663 665 667 669 671 673 675 677 679 1071 1069 1067 228 230 232 234 236 63"/>
    <route id="r_0" edges="1209 1211 1213 1215 661 663 665 667 669 671 673 675 677 679 1071 1069 1067 227 225 223"/>
    <trip id="701_0" depart="17539.00" from="545" to="802" type="car" />
    <trip id="498_0" depart="19696.00" from="1155" to="346" type="car" />
    <trip id="2168_0" depart="21221.00" from="239" to="1090" type="car" />
    <trip id="1757_0" depart="21305.00" from="241" to="1123" type="car" />
    <trip id="317_0" depart="21947.00" from="428" to="1522" type="car" />
    <trip id="842_0" depart="22421.00" from="1238" to="1334" type="car" />
    <trip id="2241_0" depart="22587.00" from="865" to="1989" type="car" />
    <trip id="1380_0" depart="22861.00" from="449" to="306" type="car" />
    <trip id="364_0" depart="23336.00" from="333" to="129" type="car" />
    <trip id="1318_0" depart="23382.00" from="2161" to="291" type="car" />
    <trip id="533_0" depart="23445.00" from="1778" to="1764" type="car" />
    <trip id="1609_0" depart="23463.00" from="1397" to="2176" type="car" />
    <trip id="1278_0" depart="23531.00" from="1524" to="36" type="car" />
    <trip id="1209_0" depart="23565.00" from="883" to="2189" type="car" />
    <trip id="333_0" depart="23607.00" from="1266" to="1897" type="car" />
    <trip id="279_0" depart="23636.00" from="1427" to="232" type="car" />
    <trip id="315_0" depart="23677.00" from="2071" to="147" type="car" />
    <trip id="1189_0" depart="23765.00" from="848" to="725" type="car" />
    <trip id="769_0" depart="23781.00" from="1436" to="565" type="car" />
    <trip id="265_0" depart="23865.00" from="1851" to="1722" type="car" />
    <trip id="677_0" depart="23899.00" from="192" to="1384" type="car" />
    <trip id="1844_0" depart="23971.00" from="1831" to="1034" type="car" />
    <trip id="906_0" depart="24149.00" from="1388" to="1028" type="car" />
    <trip id="660_0" depart="24229.00" from="1495" to="993" type="car" />
    <trip id="2137_0" depart="24321.00" from="1063" to="985" type="car" />
    <trip id="157_0" depart="24397.00" from="1406" to="1824" type="car" />
    <trip id="88_0" depart="24533.00" from="1777" to="1939" type="car" />
    <trip id="248_0" depart="24538.00" from="1932" to="1556" type="car" />
    <trip id="949_0" depart="24616.00" from="556" to="477" type="car" />
    <trip id="390_0" depart="24641.00" from="651" to="1201" type="car" />
    <trip id="100_0" depart="24667.00" from="1306" to="326" type="car" />
    <trip id="119_0" depart="24678.00" from="682" to="950" type="car" />
    <trip id="777_0" depart="24685.00" from="518" to="1944" type="car" />
    <trip id="732_0" depart="24696.00" from="1074" to="1470" type="car" />
    <trip id="625_0" depart="24716.00" from="2176" to="2070" type="car" />
    <trip id="1460_0" depart="24742.00" from="547" to="1383" type="car" />
    <trip id="1218_0" depart="24756.00" from="1195" to="2115" type="car" />
    <trip id="1578_0" depart="24775.00" from="2161" to="664" type="car" />
    <trip id="473_0" depart="24785.00" from="1738" to="2161" type="car" />
    <trip id="2128_0" depart="24830.00" from="1278" to="1825" type="car" />
    <trip id="940_0" depart="24841.00" from="1430" to="325" type="car" />
    <trip id="2180_0" depart="24856.00" from="1430" to="369" type="car" />
    <trip id="1908_0" depart="24980.00" from="1064" to="938" type="car" />
    <trip id="2127_0" depart="25003.00" from="546" to="861" type="car" />
    <trip id="1264_0" depart="25057.00" from="2048" to="733" type="car" />
    <trip id="1583_0" depart="25059.00" from="1618" to="612" type="car" />
    <trip id="1005_0" depart="25081.00" from="727" to="2011" type="car" />
    <trip id="1557_0" depart="25114.00" from="1448" to="766" type="car" />
    <trip id="755_0" depart="25129.00" from="582" to="879" type="car" />
    <trip id="1357_0" depart="25142.00" from="2042" to="121" type="car" />
    <trip id="556_0" depart="25199.00" from="1563" to="1626" type="car" />
    <trip id="250_0" depart="25225.00" from="1130" to="2158" type="car" />
    <trip id="212_0" depart="25227.00" from="1062" to="384" type="car" />
    <trip id="2418_0" depart="25228.00" from="1530" to="860" type="car" />
    <trip id="504_0" depart="25228.00" from="2147" to="613" type="car" />
    <trip id="1682_0" depart="25253.00" from="501" to="361" type="car" />
    <trip id="1272_0" depart="25258.00" from="1842" to="981" type="car" />
    <trip id="1957_0" depart="25335.00" from="1202" to="309" type="car" />
    <trip id="102_0" depart="25349.00" from="863" to="1820" type="car" />
    <trip id="602_0" depart="25370.00" from="1462" to="1573" type="car" />
    <trip id="881_0" depart="25401.00" from="1764" to="412" type="car" />
    <trip id="1774_0" depart="25412.00" from="507" to="609" type="car" />
    <trip id="977_0" depart="25451.00" from="655" to="440" type="car" />
    <trip id="1556_0" depart="25470.00" from="2088" to="503" type="car" />
    <trip id="1896_0" depart="25495.00" from="763" to="1489" type="car" />
    <trip id="789_0" depart="25517.00" from="2152" to="1192" type="car" />
    <trip id="723_0" depart="25519.00" from="2065" to="106" type="car" />
    <trip id="914_0" depart="25551.00" from="812" to="451" type="car" />
    <trip id="1287_0" depart="25576.00" from="743" to="2137" type="car" />
    <trip id="1795_0" depart="25579.00" from="469" to="1619" type="car" />
    <trip id="927_0" depart="25609.00" from="371" to="596" type="car" />
    <trip id="1067_0" depart="25611.00" from="1576" to="1292" type="car" />
    <trip id="1028_0" depart="25622.00" from="434" to="1464" type="car" />
    <trip id="1013_0" depart="25660.00" from="89" to="519" type="car" />
    <trip id="1963_0" depart="25668.00" from="1697" to="1728" type="car" />
    <trip id="972_0" depart="25668.00" from="1880" to="304" type="car" />
    <trip id="2480_0" depart="25683.00" from="416" to="300" type="car" />
    <trip id="351_0" depart="25689.00" from="663" to="702" type="car" />
    <trip id="1252_0" depart="25691.00" from="2161" to="664" type="car" />
    <trip id="2228_0" depart="25698.00" from="1386" to="1809" type="car" />
    <trip id="109_0" depart="25725.00" from="1335" to="841" type="car" />
    <trip id="1740_0" depart="25734.00" from="528" to="1694" type="car" />
    <trip id="2267_0" depart="25771.00" from="917" to="961" type="car" />
    <trip id="27_0" depart="25772.00" from="425" to="834" type="car" />
    <trip id="2439_0" depart="25774.00" from="1242" to="1343" type="car" />
    <trip id="1394_0" depart="25777.00" from="1719" to="704" type="car" />
    <trip id="1437_0" depart="25793.00" from="1298" to="820" type="car" />
    <trip id="1913_0" depart="25808.00" from="1582" to="2075" type="car" />
    <trip id="2255_0" depart="25823.00" from="954" to="1895" type="car" />
    <trip id="898_0" depart="25833.00" from="846" to="885" type="car" />
    <trip id="1458_0" depart="25858.00" from="291" to="10" type="car" />
    <trip id="2221_0" depart="25860.00" from="2152" to="583" type="car" />
    <trip id="1878_0" depart="25870.00" from="142" to="1634" type="car" />
    <trip id="2037_0" depart="25878.00" from="1464" to="549" type="car" />
    <trip id="528_0" depart="25888.00" from="501" to="1132" type="car" />
    <trip id="312_0" depart="25901.00" from="1405" to="783" type="car" />
    <trip id="2335_0" depart="25969.00" from="670" to="293" type="car" />
    <trip id="1382_0" depart="25984.00" from="1590" to="1591" type="car" />
    <trip id="1988_0" depart="26001.00" from="1506" to="1854" type="car" />
    <trip id="1179_0" depart="26003.00" from="1995" to="147" type="car" />
    <trip id="242_0" depart="26021.00" from="902" to="1488" type="car" />
    <trip id="260_0" depart="26034.00" from="1088" to="859" type="car" />
    <trip id="1728_0" depart="26049.00" from="421" to="1994" type="car" />
    <trip id="641_0" depart="26050.00" from="867" to="1374" type="car" />
    <trip id="140_0" depart="26059.00" from="1213" to="1844" type="car" />
    <trip id="984_0" depart="26073.00" from="1444" to="2158" type="car" />
    <trip id="1393_0" depart="26075.00" from="426" to="1532" type="car" />
    <trip id="2364_0" depart="26079.00" from="1488" to="1031" type="car" />
    <trip id="979_0" depart="26143.00" from="590" to="1274" type="car" />
    <trip id="73_0" depart="26149.00" from="203" to="2125" type="car" />
    <trip id="648_0" depart="26174.00" from="1750" to="1907" type="car" />
    <trip id="365_0" depart="26226.00" from="1037" to="655" type="car" />
    <trip id="1972_0" depart="26228.00" from="525" to="1556" type="car" />
    <trip id="1906_0" depart="26233.00" from="646" to="1810" type="car" />
    <trip id="767_0" depart="26240.00" from="547" to="972" type="car" />
    <trip id="2405_0" depart="26259.00" from="189" to="1591" type="car" />
    <trip id="1922_0" depart="26307.00" from="882" to="797" type="car" />
    <trip id="2331_0" depart="26313.00" from="955" to="988" type="car" />
    <trip id="2236_0" depart="26324.00" from="1510" to="2037" type="car" />
    <trip id="215_0" depart="26340.00" from="2120" to="25" type="car" />
    <trip id="106_0" depart="26341.00" from="1821" to="1373" type="car" />
    <trip id="1136_0" depart="26345.00" from="1850" to="389" type="car" />
    <trip id="516_0" depart="26345.00" from="379" to="1053" type="car" />
    <trip id="1735_0" depart="26353.00" from="1466" to="341" type="car" />
    <trip id="2193_0" depart="26386.00" from="1701" to="1200" type="car" />
    <trip id="2457_0" depart="26423.00" from="620" to="1651" type="car" />
    <trip id="601_0" depart="26442.00" from="1175" to="855" type="car" />
    <trip id="240_0" depart="26444.00" from="246" to="1238" type="car" />
    <trip id="1191_0" depart="26472.00" from="1437" to="476" type="car" />
    <trip id="688_0" depart="26481.00" from="732" to="220" type="car" />
    <trip id="238_0" depart="26488.00" from="1118" to="904" type="car" />
    <trip id="566_0" depart="26493.00" from="336" to="1595" type="car" />
    <trip id="845_0" depart="26505.00" from="1721" to="1070" type="car" />
    <trip id="1604_0" depart="26507.00" from="336" to="1460" type="car" />
    <trip id="408_0" depart="26507.00" from="1711" to="2135" type="car" />
    <trip id="117_0" depart="26513.00" from="158" to="1074" type="car" />
    <trip id="439_0" depart="26515.00" from="1030" to="1579" type="car" />
    <trip id="442_0" depart="26518.00" from="1383" to="284" type="car" />
    <trip id="700_0" depart="26530.00" from="1488" to="908" type="car" />
    <trip id="1718_0" depart="26533.00" from="1057" to="1518" type="car" />
    <trip id="1635_0" depart="26534.00" from="510" to="885" type="car" />
    <trip id="1083_0" depart="26558.00" from="1805" to="1731" type="car" />
    <trip id="1909_0" depart="26593.00" from="441" to="268" type="car" />
    <trip id="1699_0" depart="26597.00" from="1216" to="1849" type="car" />
    <trip id="1325_0" depart="26628.00" from="1881" to="189" type="car" />
    <trip id="861_0" depart="26633.00" from="372" to="1089" type="car" />
    <trip id="1036_0" depart="26651.00" from="666" to="1688" type="car" />
    <trip id="276_0" depart="26654.00" from="251" to="2" type="car" />
    <trip id="227_0" depart="26657.00" from="1289" to="191" type="car" />
    <trip id="249_0" depart="26695.00" from="1477" to="1319" type="car" />
    <trip id="1106_0" depart="26699.00" from="633" to="1985" type="car" />
    <trip id="1438_0" depart="26700.00" from="1860" to="1261" type="car" />
    <trip id="1121_0" depart="26715.00" from="53" to="414" type="car" />
    <trip id="1237_0" depart="26715.00" from="1382" to="479" type="car" />
    <trip id="1409_0" depart="26715.00" from="2047" to="221" type="car" />
    <trip id="101_0" depart="26723.00" from="1771" to="1852" type="car" />
    <trip id="221_0" depart="26724.00" from="1064" to="582" type="car" />
    <trip id="144_0" depart="26727.00" from="607" to="327" type="car" />
    <trip id="362_0" depart="26778.00" from="300" to="2111" type="car" />
    <trip id="326_0" depart="26780.00" from="1784" to="1568" type="car" />
    <trip id="2109_0" depart="26793.00" from="232" to="2149" type="car" />
    <trip id="2234_0" depart="26799.00" from="808" to="2163" type="car" />
    <trip id="135_0" depart="26803.00" from="1516" to="1933" type="car" />
    <trip id="400_0" depart="26804.00" from="1398" to="2049" type="car" />
    <trip id="2058_0" depart="26806.00" from="1524" to="1742" type="car" />
    <trip id="591_0" depart="26808.00" from="552" to="1626" type="car" />
    <trip id="1805_0" depart="26816.00" from="1281" to="1919" type="car" />
    <trip id="1291_0" depart="26824.00" from="1446" to="480" type="car" />
    <trip id="1406_0" depart="26825.00" from="1821" to="336" type="car" />
    <trip id="894_0" depart="26831.00" from="1112" to="547" type="car" />
    <trip id="497_0" depart="26840.00" from="108" to="2031" type="car" />
    <trip id="1001_0" depart="26851.00" from="1723" to="60" type="car" />
    <trip id="827_0" depart="26853.00" from="1032" to="2102" type="car" />
    <trip id="2367_0" depart="26870.00" from="1486" to="1094" type="car" />
    <trip id="1176_0" depart="26885.00" from="2079" to="39" type="car" />
    <trip id="2295_0" depart="26910.00" from="76" to="1713" type="car" />
    <trip id="2132_0" depart="26926.00" from="616" to="1293" type="car" />
    <trip id="1312_0" depart="26946.00" from="590" to="1991" type="car" />
    <trip id="386_0" depart="26947.00" from="31" to="2022" type="car" />
    <trip id="23_0" depart="26950.00" from="645" to="1108" type="car" />
    <trip id="502_0" depart="26994.00" from="453" to="335" type="car" />
    <trip id="2368_0" depart="27012.00" from="1427" to="1778" type="car" />
    <trip id="141_0" depart="27018.00" from="720" to="894" type="car" />
    <trip id="2070_0" depart="27025.00" from="1920" to="295" type="car" />
    <trip id="2486_0" depart="27030.00" from="1609" to="1133" type="car" />
    <trip id="1116_0" depart="27053.00" from="1615" to="1605" type="car" />
    <trip id="2015_0" depart="27069.00" from="1156" to="916" type="car" />
    <trip id="492_0" depart="27069.00" from="643" to="1796" type="car" />
    <trip id="1167_0" depart="27085.00" from="1811" to="427" type="car" />
    <trip id="1260_0" depart="27098.00" from="1692" to="677" type="car" />
    <trip id="583_0" depart="27098.00" from="603" to="1821" type="car" />
    <trip id="1429_0" depart="27101.00" from="2136" to="1690" type="car" />
    <trip id="2196_0" depart="27104.00" from="1831" to="655" type="car" />
    <trip id="149_0" depart="27114.00" from="721" to="304" type="car" />
    <trip id="594_0" depart="27129.00" from="1146" to="1355" type="car" />
    <trip id="1589_0" depart="27137.00" from="1007" to="1822" type="car" />
    <trip id="1804_0" depart="27139.00" from="1830" to="449" type="car" />
    <trip id="1408_0" depart="27183.00" from="1345" to="1468" type="car" />
    <trip id="2097_0" depart="27184.00" from="1780" to="1092" type="car" />
    <trip id="2238_0" depart="27188.00" from="1728" to="235" type="car" />
    <trip id="1778_0" depart="27193.00" from="159" to="208" type="car" />
    <trip id="2242_0" depart="27200.00" from="2111" to="2065" type="car" />
    <trip id="1867_0" depart="27202.00" from="543" to="1331" type="car" />
    <trip id="288_0" depart="27218.00" from="528" to="292" type="car" />
    <trip id="2160_0" depart="27226.00" from="431" to="1827" type="car" />
    <trip id="129_0" depart="27230.00" from="1897" to="1499" type="car" />
    <trip id="445_0" depart="27260.00" from="422" to="611" type="car" />
    <trip id="1395_0" depart="27271.00" from="704" to="1746" type="car" />
    <trip id="378_0" depart="27289.00" from="482" to="1144" type="car" />
    <trip id="150_0" depart="27305.00" from="671" to="1299" type="car" />
    <trip id="1284_0" depart="27317.00" from="1587" to="1582" type="car" />
    <trip id="628_0" depart="27343.00" from="95" to="716" type="car" />
    <trip id="807_0" depart="27351.00" from="993" to="1178" type="car" />
    <trip id="1082_0" depart="27370.00" from="1501" to="70" type="car" />
    <trip id="75_0" depart="27370.00" from="1354" to="963" type="car" />
    <trip id="523_0" depart="27376.00" from="481" to="4" type="car" />
    <trip id="2181_0" depart="27378.00" from="568" to="1378" type="car" />
    <trip id="1743_0" depart="27384.00" from="1180" to="1090" type="car" />
    <trip id="1509_0" depart="27390.00" from="1936" to="2146" type="car" />
    <trip id="1107_0" depart="27396.00" from="2176" to="758" type="car" />
    <trip id="348_0" depart="27408.00" from="879" to="657" type="car" />
    <trip id="432_0" depart="27426.00" from="164" to="1708" type="car" />
    <trip id="712_0" depart="27456.00" from="519" to="1680" type="car" />
    <trip id="1668_0" depart="27457.00" from="1581" to="1408" type="car" />
    <trip id="1466_0" depart="27461.00" from="1313" to="307" type="car" />
    <trip id="41_0" depart="27466.00" from="1134" to="497" type="car" />
    <trip id="2150_0" depart="27468.00" from="435" to="1114" type="car" />
    <trip id="621_0" depart="27468.00" from="1516" to="412" type="car" />
    <trip id="60_0" depart="27470.00" from="1611" to="2101" type="car" />
    <trip id="2091_0" depart="27473.00" from="2054" to="105" type="car" />
    <trip id="1269_0" depart="27487.00" from="586" to="1609" type="car" />
    <trip id="1752_0" depart="27487.00" from="97" to="1082" type="car" />
    <trip id="1508_0" depart="27497.00" from="1393" to="1755" type="car" />
    <trip id="403_0" depart="27498.00" from="893" to="1543" type="car" />
    <trip id="752_0" depart="27499.00" from="160" to="761" type="car" />
    <trip id="646_0" depart="27513.00" from="1575" to="644" type="car" />
    <trip id="1593_0" depart="27515.00" from="828" to="1576" type="car" />
    <trip id="2142_0" depart="27519.00" from="344" to="1316" type="car" />
    <trip id="1155_0" depart="27538.00" from="1017" to="1882" type="car" />
    <trip id="374_0" depart="27539.00" from="1624" to="657" type="car" />
    <trip id="1294_0" depart="27543.00" from="1734" to="2079" type="car" />
    <trip id="138_0" depart="27546.00" from="1688" to="2177" type="car" />
    <trip id="1037_0" depart="27561.00" from="1270" to="1365" type="car" />
    <trip id="801_0" depart="27566.00" from="1943" to="1856" type="car" />
    <trip id="1227_0" depart="27570.00" from="756" to="152" type="car" />
    <trip id="185_0" depart="27590.00" from="524" to="2114" type="car" />
    <trip id="2270_0" depart="27593.00" from="1114" to="2182" type="car" />
    <trip id="1760_0" depart="27618.00" from="1948" to="1839" type="car" />
    <trip id="632_0" depart="27624.00" from="1613" to="1662" type="car" />
    <trip id="1747_0" depart="27630.00" from="954" to="294" type="car" />
    <trip id="956_0" depart="27630.00" from="418" to="1765" type="car" />
    <trip id="1511_0" depart="27634.00" from="641" to="33" type="car" />
    <trip id="143_0" depart="27666.00" from="1856" to="376" type="car" />
    <trip id="1490_0" depart="27683.00" from="379" to="1523" type="car" />
    <trip id="484_0" depart="27696.00" from="226" to="1277" type="car" />
    <trip id="567_0" depart="27696.00" from="1351" to="1483" type="car" />
    <trip id="1059_0" depart="27704.00" from="1666" to="126" type="car" />
    <trip id="658_0" depart="27708.00" from="1582" to="2059" type="car" />
    <trip id="2259_0" depart="27714.00" from="1830" to="462" type="car" />
    <trip id="354_0" depart="27716.00" from="101" to="1132" type="car" />
    <trip id="1688_0" depart="27721.00" from="1576" to="1187" type="car" />
    <trip id="281_0" depart="27721.00" from="1966" to="2011" type="car" />
    <trip id="2447_0" depart="27734.00" from="2124" to="1281" type="car" />
    <trip id="1206_0" depart="27740.00" from="1176" to="1594" type="car" />
    <trip id="2062_0" depart="27762.00" from="853" to="827" type="car" />
    <trip id="1238_0" depart="27769.00" from="401" to="1275" type="car" />
    <trip id="283_0" depart="27817.00" from="1012" to="858" type="car" />
    <trip id="1265_0" depart="27826.00" from="384" to="13" type="car" />
    <trip id="355_0" depart="27827.00" from="1092" to="1872" type="car" />
    <trip id="379_0" depart="27827.00" from="644" to="1065" type="car" />
    <trip id="2360_0" depart="27831.00" from="574" to="510" type="car" />
    <trip id="2333_0" depart="27842.00" from="2112" to="233" type="car" />
    <trip id="1263_0" depart="27858.00" from="291" to="1066" type="car" />
    <trip id="674_0" depart="27861.00" from="1714" to="468" type="car" />
    <trip id="2175_0" depart="27871.00" from="6" to="2038" type="car" />
    <trip id="2263_0" depart="27888.00" from="1490" to="1114" type="car" />
    <trip id="2476_0" depart="27890.00" from="1111" to="279" type="car" />
    <trip id="1010_0" depart="27900.00" from="468" to="708" type="car" />
    <trip id="634_0" depart="27900.00" from="546" to="937" type="car" />
    <trip id="1296_0" depart="27901.00" from="1097" to="1812" type="car" />
    <trip id="1954_0" depart="27901.00" from="561" to="1241" type="car" />
    <trip id="2365_0" depart="27908.00" from="16" to="1546" type="car" />
    <trip id="2139_0" depart="27927.00" from="2000" to="1711" type="car" />
    <trip id="1310_0" depart="27935.00" from="1284" to="324" type="car" />
    <trip id="2111_0" depart="27938.00" from="1596" to="442" type="car" />
    <trip id="2197_0" depart="27939.00" from="860" to="1332" type="car" />
    <trip id="449_0" depart="27947.00" from="1537" to="653" type="car" />
    <trip id="1280_0" depart="27948.00" from="1180" to="255" type="car" />
    <trip id="1746_0" depart="27954.00" from="1217" to="1185" type="car" />
    <trip id="1539_0" depart="27956.00" from="1330" to="452" type="car" />
    <trip id="2334_0" depart="27973.00" from="1766" to="1506" type="car" />
    <trip id="2425_0" depart="27975.00" from="1875" to="2042" type="car" />
    <trip id="1336_0" depart="27982.00" from="1816" to="913" type="car" />
    <trip id="612_0" depart="28029.00" from="1542" to="101" type="car" />
    <trip id="1299_0" depart="28034.00" from="1493" to="1164" type="car" />
    <trip id="1376_0" depart="28038.00" from="1585" to="986" type="car" />
    <trip id="176_0" depart="28042.00" from="864" to="1574" type="car" />
    <trip id="573_0" depart="28042.00" from="961" to="583" type="car" />
    <trip id="116_0" depart="28047.00" from="520" to="1757" type="car" />
    <trip id="761_0" depart="28061.00" from="2028" to="429" type="car" />
    <trip id="692_0" depart="28067.00" from="1278" to="1214" type="car" />
    <trip id="77_0" depart="28077.00" from="426" to="1784" type="car" />
    <trip id="727_0" depart="28080.00" from="680" to="2071" type="car" />
    <trip id="2108_0" depart="28090.00" from="628" to="1712" type="car" />
    <trip id="1779_0" depart="28100.00" from="2037" to="1813" type="car" />
    <trip id="233_0" depart="28104.00" from="1792" to="363" type="car" />
    <trip id="690_0" depart="28107.00" from="815" to="934" type="car" />
    <trip id="1425_0" depart="28108.00" from="42" to="408" type="car" />
    <trip id="465_0" depart="28110.00" from="1717" to="1939" type="car" />
    <trip id="1521_0" depart="28111.00" from="1055" to="1554" type="car" />
    <trip id="2066_0" depart="28128.00" from="1905" to="675" type="car" />
    <trip id="1930_0" depart="28139.00" from="588" to="801" type="car" />
    <trip id="791_0" depart="28145.00" from="92" to="1884" type="car" />
    <trip id="1075_0" depart="28155.00" from="1183" to="337" type="car" />
    <trip id="787_0" depart="28157.00" from="428" to="1050" type="car" />
    <trip id="2207_0" depart="28175.00" from="1237" to="2160" type="car" />
    <trip id="1953_0" depart="28191.00" from="1594" to="1568" type="car" />
    <trip id="286_0" depart="28191.00" from="686" to="1896" type="car" />
    <trip id="298_0" depart="28193.00" from="1702" to="807" type="car" />
    <trip id="1097_0" depart="28199.00" from="1607" to="1037" type="car" />
    <trip id="34_0" depart="28204.00" from="1750" to="619" type="car" />
    <trip id="1533_0" depart="28206.00" from="1742" to="419" type="car" />
    <trip id="43_0" depart="28212.00" from="1280" to="28" type="car" />
    <trip id="1917_0" depart="28227.00" from="242" to="1334" type="car" />
    <trip id="1563_0" depart="28236.00" from="387" to="107" type="car" />
    <trip id="1527_0" depart="28238.00" from="2157" to="117" type="car" />
    <trip id="909_0" depart="28242.00" from="718" to="843" type="car" />
    <trip id="1320_0" depart="28252.00" from="1347" to="493" type="car" />
    <trip id="1423_0" depart="28256.00" from="1081" to="999" type="car" />
    <trip id="1138_0" depart="28259.00" from="1725" to="222" type="car" />
    <trip id="134_0" depart="28259.00" from="595" to="1156" type="car" />
    <trip id="1175_0" depart="28267.00" from="757" to="1906" type="car" />
    <trip id="1516_0" depart="28282.00" from="620" to="757" type="car" />
    <trip id="1171_0" depart="28285.00" from="2094" to="260" type="car" />
    <trip id="2133_0" depart="28286.00" from="31" to="167" type="car" />
    <trip id="482_0" depart="28295.00" from="1847" to="1588" type="car" />
    <trip id="2438_0" depart="28312.00" from="71" to="22" type="car" />
    <trip id="167_0" depart="28319.00" from="240" to="865" type="car" />
    <trip id="1435_0" depart="28336.00" from="748" to="707" type="car" />
    <trip id="751_0" depart="28341.00" from="1823" to="1110" type="car" />
    <trip id="234_0" depart="28351.00" from="834" to="819" type="car" />
    <trip id="2130_0" depart="28360.00" from="1048" to="515" type="car" />
    <trip id="1372_0" depart="28370.00" from="1055" to="1805" type="car" />
    <trip id="1369_0" depart="28393.00" from="1672" to="930" type="car" />
    <trip id="735_0" depart="28401.00" from="1387" to="909" type="car" />
    <trip id="1955_0" depart="28406.00" from="211" to="1384" type="car" />
    <trip id="1835_0" depart="28421.00" from="820" to="1542" type="car" />
    <trip id="965_0" depart="28422.00" from="406" to="1507" type="car" />
    <trip id="539_0" depart="28426.00" from="793" to="2093" type="car" />
    <trip id="112_0" depart="28445.00" from="143" to="1824" type="car" />
    <trip id="2153_0" depart="28446.00" from="1302" to="370" type="car" />
    <trip id="2421_0" depart="28450.00" from="617" to="1517" type="car" />
    <trip id="241_0" depart="28489.00" from="892" to="504" type="car" />
    <trip id="1023_0" depart="28491.00" from="1017" to="1162" type="car" />
    <trip id="165_0" depart="28497.00" from="2149" to="947" type="car" />
    <trip id="1649_0" depart="28522.00" from="815" to="195" type="car" />
    <trip id="229_0" depart="28530.00" from="625" to="235" type="car" />
    <trip id="736_0" depart="28536.00" from="1413" to="72" type="car" />
    <trip id="694_0" depart="28563.00" from="408" to="741" type="car" />
    <trip id="1939_0" depart="28569.00" from="1851" to="11" type="car" />
    <trip id="2375_0" depart="28577.00" from="529" to="1869" type="car" />
    <trip id="687_0" depart="28582.00" from="1878" to="1874" type="car" />
    <trip id="1348_0" depart="28583.00" from="61" to="760" type="car" />
    <trip id="194_0" depart="28588.00" from="308" to="1098" type="car" />
    <trip id="2005_0" depart="28589.00" from="2036" to="685" type="car" />
    <trip id="1877_0" depart="28598.00" from="832" to="1185" type="car" />
    <trip id="2186_0" depart="28617.00" from="931" to="953" type="car" />
    <trip id="2417_0" depart="28630.00" from="1501" to="1261" type="car" />
    <trip id="192_0" depart="28631.00" from="1628" to="1209" type="car" />
    <trip id="1964_0" depart="28631.00" from="1790" to="603" type="car" />
    <trip id="1654_0" depart="28645.00" from="447" to="1612" type="car" />
    <trip id="729_0" depart="28646.00" from="116" to="1497" type="car" />
    <trip id="643_0" depart="28661.00" from="1163" to="818" type="car" />
    <trip id="788_0" depart="28665.00" from="1833" to="1133" type="car" />
    <trip id="715_0" depart="28670.00" from="377" to="19" type="car" />
    <trip id="1301_0" depart="28679.00" from="1666" to="1603" type="car" />
    <trip id="344_0" depart="28681.00" from="1833" to="2188" type="car" />
    <trip id="895_0" depart="28706.00" from="261" to="932" type="car" />
    <trip id="2071_0" depart="28712.00" from="1684" to="83" type="car" />
    <trip id="181_0" depart="28714.00" from="876" to="1090" type="car" />
    <trip id="2253_0" depart="28714.00" from="1593" to="1534" type="car" />
    <trip id="469_0" depart="28716.00" from="1074" to="653" type="car" />
    <trip id="177_0" depart="28720.00" from="890" to="1657" type="car" />
    <trip id="1461_0" depart="28724.00" from="1026" to="303" type="car" />
    <trip id="673_0" depart="28749.00" from="1817" to="909" type="car" />
    <trip id="328_0" depart="28757.00" from="118" to="362" type="car" />
    <trip id="1540_0" depart="28761.00" from="1652" to="1907" type="car" />
    <trip id="1685_0" depart="28769.00" from="1202" to="265" type="car" />
    <trip id="1677_0" depart="28772.00" from="667" to="35" type="car" />
    <trip id="2472_0" depart="28776.00" from="556" to="1036" type="car" />
    <trip id="277_0" depart="28778.00" from="1007" to="604" type="car" />
    <trip id="2101_0" depart="28788.00" from="571" to="660" type="car" />
    <trip id="2096_0" depart="28797.00" from="2135" to="758" type="car" />
    <trip id="2047_0" depart="28798.00" from="1302" to="1113" type="car" />
    <trip id="852_0" depart="28803.00" from="29" to="2194" type="car" />
    <trip id="1345_0" depart="28821.00" from="1051" to="1824" type="car" />