<?xml version='1.0' encoding='utf-8'?>
<routes xmlns:xsi="http://www.w3.org/2001/XMLSchema-instance" xsi:noNamespaceSchemaLocation="http://sumo.dlr.de/xsd/routes_file.xsd">



   
   
    
    <route edges="213 212 216 202 204 1866 1868 7 9 11 13 15 17 19 21 23 25 27 232 234 236 1769 1771 1773 1775 1777 428 1656 1654 1652 1650 1648 1646 1644 1642 1640 1638 1636 1894 2078 2076 2074 2072 2070 2068 2066 2065 2067" id="r_0" />
    <route edges="1649 1651 1653 1655 429 1778 1776 1774 1772 1770 237 235 233 28 26 24 22 1998 1996 1994 73 71 69" id="r_1" />
    <route edges="691 693 695 1858 58 60 62 237 235 233 28 26 24 22 1999 2001 2003 2005 2007 2009 2011 1808" id="r_2" />
    <route edges="1140 1141 1142 1143 1184 1182 1180 1178 1176 1174 97 95 93 103 101" id="r_3" />
    <route edges="1885 1883 1881 1879 1877 1875 1873 1871 1870 1872 1874 1876 1878 1880 1882 1884 1886 1544 362 364 366 368 370 372 798 910 812 814 816 818 820 822 824 826 828 830 832 834 836 838 840 842 844 846 848 850 852 854 856 858 860 862 864 866 868" id="r_4" />
    <route edges="1466 1467 1888 1889 1890 545 458 459 460 461 462 514 512 510 508 1294 1292 1290 1288 1286 1284 2046 2044 2042 1374 1375 1376 1377 1378 1379 1992 1990 1988 1156 1109 1110 1111 1112 1113 1114 1115 1116 1117 1103 1104 1105 1106" id="r_5" />
    <route edges="814 816 818 820 822 784 799 800 801 802 803 360 361 2167 1306 916 917 918 919 920 921 922 923 912 1367 1368 1369 1370 1371 1372 1373 2041 2043 2045 603 605 607 609 611 613 615 547 548 549 550 551 552 553 554 555 556 1385 1387 1313 1315 1317 1319 1321 1323 1325 1327 1329 1331 1333 1335 1337 1339 1341 1343 1345" id="r_6" />
    <route edges="1379 1992 1990 1988 1156" id="r_7" />
    <route edges="1613 1614 1615 1616 1461 1462 1463 1464 1465 1466 1467 1888 1493 1494 1495 1496 1497 1498 1569 1570 1571 1572 1573 1574 1575 1576 1577 1578 1579 1580 765 766 767 768 299 1153 1154 1589 1591 1657 1658 1659 1660 1661 1662" id="r_8" />
    <route edges="735 736 1050 1052 1054 1056 1058 1060 1062 1621 1622 2075 2077 1893 1635 1637 1639 1641 1643 1645 1647 1649 1651 1653 1655 429 1778 1776 1774 1772 1770 237 235 233 28 26 24 22 20 18 16 14 12 10 8 1869 1867 530 528 526 524 522 520 518 516 515 517 519 521 523" id="r_9" />
    <route edges="158 160 162 436 437 438 439 1561 1562 1563 1482 1483 1484 1485 1486 1487 1488 1489 1490 1491 1492 469 470 1011 1013 1119 1072 1074" id="r_10" />
    <route edges="425 423 244 246 248 1541 362 364 366 368 370 372 798 910 812 814 816 818 820 822 824 826 828 830 832 834" id="r_11" />
    <route edges="281 283 284 282 280 278 276 1530 1528 1526 269 267 265 263 261 259 257 255 552 553 554 555 556 1385 1387 1313 1315 1317 1319 1321 1323 1325 1327 1329 1331 1333 1335 1337 565 567 569 571 1836 1837 1490 1491 1492 1617 1618 1619 1620 1601 1602 1603 1604 1605 1606 1607 1608 1609 481 482 2187 2188 2189 2190 2191 2192 2182 590 591 592 1575 1576 1577 1578 1579 1580 765 766 767 768 299 1153 1154 1589 1591 1593 1595 1597 1599 1623 1625 1626 1624 1600 1598" id="r_12" />
    <route edges="1064 1065 1026 1027 1028 1029 1030 1031 1032 1033 1034 1035 1036 1037 1038 1039 1040 1041 1155 1987 1989 1991 1380 1361 1362 1363 1364 1365 1366 1367 1368 1369 1370 1371 1372 1373 2041 2043 2045 603 605 607 609 611 613 615 547 548 549 550 551 254 256 258 260 262 264 266 268 1525 1527 1529 1531 593 595 581 583 584 582" id="r_13" />
    <route edges="993 994 995 996 1144 1145 1146 1580 765 766 767 768 299 771 772 773 774 1564 1565 1566 1567 1568 1569 1570 585 586 587 588 589 430 431 432 433 434 435 436 437 438 439 1561 1562 1563 1482 1483 1484 1485 1486 1487 1488 1489 1490 1491 1492 1617 1618 1619 1620 1601 1602 1603 1604 1605 1606 1607 1608 1609 481 482 2187 2188 2189 2190 1269 1271 1273 1275 1169 1171 1173 1175 1177 1179 1181 1182 1180 1178" id="r_14" />
    <route edges="2071 2073 2075 2077 1893 1634 1632 1630 1628 406 408 410 412 414 416 418 420 421 419 417" id="r_15" />
    <route edges="1041 1155 1987 1989 1991 1380 1361 1362 1363 1364 1365 1366 1367 1368 1369 1370 1371 1372 1373 2041 2043 2045 603 605 607 609 611 613 615 547 548 549 550 551 552 553 554 555 556 1385 1387 1313 1315 1317 1319 1321 1323 1325 1327 1329 1331 1333" id="r_16" />
    <route edges="1601 1602 1603 1604 1605 1606 1607 1608 1609 542 543 544 1482 1483 1484 496 497 498 572 570 568 566 1339 1341 1343 1345 1347 1349 1351 1353 1355 1357 1307 1309 1311 1388 1386 557 558 559 560 561 562 563 564 546 547 548 549 550 551 254 256 258 260 262 264 266 268 1525 1527 1529 1531 1533 1535 1537 1539 1541 362 364 366 368 370 372 798 909 907 905 903 901 899 897 895 893 891 889" id="r_17" />
    <route edges="1989 1991 1380 1361 1362 1363 1364 1365 1366 1367 1368 1369 1370 1371 1372 1373 2041 2043 2045 603 605 607 609 611 613 615 547 548 549 550 551 552 553 554 555 556 1385 1387 1313 1315 1317 1319 1321 1323 1325 1327 1329 1331 1333 1335 1337 565 567 569 571 1836 1837 1490 1491 1492 1617 1618 1619 1620 1601 1602 1603 1604 1605 1606 1607 1608 1609 481 482 2187 2188 2189 2190 1269 1271 1273 1275 1169 1171 1173 1175 1177 1179 1181 1139 1140 1141 1142 1143" id="r_18" />
    <route edges="1434 648 646 644 434 435 436 437 438 439 1561 1562 1563 1482 1483 1484 496 497 498 572 570 568 566 1339 1341 1343 1345 1347 1349 1351 1353 1355 1357 1307 1309 1311 1388 1386 557 558 559 560 561 562 563 564 546 547 548 549 550 551 254 256 258 260 262 264 266 268 1525 1527 1529 1531 1533 1535 1537 1539 1541 362 364 366 368 370 372 798 910 812 814 816 818 820 822 824 826 828 830 832 834 836 838 840 842 844 846 848 850 852 854 856 858 860 862 864 866 868 870 872 874 876 878 880 882" id="r_19" />
   
    </routes>