<?xml version="1.0" encoding="UTF-8"?>

<!-- generated on 2023-03-02 10:26:46 by Eclipse SUMO duarouter Version 1.16.0
<configuration xmlns:xsi="http://www.w3.org/2001/XMLSchema-instance" xsi:noNamespaceSchemaLocation="http://sumo.dlr.de/xsd/duarouterConfiguration.xsd">

    <input>
        <net-file value="sumo/MASA.net.xml"/>
        <route-files value="sumo/plans/60_plans.rou.xml"/>
    </input>

    <output>
        <output-file value="sumo/route.rou.xml"/>
    </output>

</configuration>
-->

<routes xmlns:xsi="http://www.w3.org/2001/XMLSchema-instance" xsi:noNamespaceSchemaLocation="http://sumo.dlr.de/xsd/routes_file.xsd">
    <vType id="car" vClass="passenger"/>
    <vehicle id="404_0" type="car" depart="20425.00">
        <route edges="213 212 216 202 204 1866 1868 7 9 11 13 15 17 19 21 23 25 27 232 234 236 1769 1771 1773 1775 1777 428 1656 1654 1652 1650 1648 1646 1644 1642 1640 1638 1636 1894 2078 2076 2074 2072 2070 2068 2066 2065 2067"/>
    </vehicle>
    <vehicle id="864_0" type="car" depart="22571.00">
        <route edges="1649 1651 1653 1655 429 1778 1776 1774 1772 1770 237 235 233 28 26 24 22 1998 1996 1994 73 71 69"/>
    </vehicle>
    <vehicle id="696_0" type="car" depart="22945.00">
        <route edges="691 693 695 1858 58 60 62 237 235 233 28 26 24 22 1999 2001 2003 2005 2007 2009 2011 1808"/>
    </vehicle>
    <vehicle id="352_0" type="car" depart="23042.00">
        <route edges="1140 1141 1142 1143 1184 1182 1180 1178 1176 1174 97 95 93 103 101"/>
    </vehicle>
    <vehicle id="363_0" type="car" depart="23531.00">
        <route edges="1885 1883 1881 1879 1877 1875 1873 1871 1870 1872 1874 1876 1878 1880 1882 1884 1886 1544 362 364 366 368 370 372 798 910 812 814 816 818 820 822 824 826 828 830 832 834 836 838 840 842 844 846 848 850 852 854 856 858 860 862 864 866 868"/>
    </vehicle>
    <vehicle id="235_0" type="car" depart="23546.00">
        <route edges="1466 1467 1888 1889 1890 545 458 459 460 461 462 514 512 510 508 1294 1292 1290 1288 1286 1284 2046 2044 2042 1374 1375 1376 1377 1378 1379 1992 1990 1988 1156 1109 1110 1111 1112 1113 1114 1115 1116 1117 1103 1104 1105 1106"/>
    </vehicle>
    <vehicle id="121_0" type="car" depart="23631.00">
        <route edges="814 816 818 820 822 784 799 800 801 802 803 360 361 2167 1306 916 917 918 919 920 921 922 923 912 1367 1368 1369 1370 1371 1372 1373 2041 2043 2045 603 605 607 609 611 613 615 547 548 549 550 551 552 553 554 555 556 1385 1387 1313 1315 1317 1319 1321 1323 1325 1327 1329 1331 1333 1335 1337 1339 1341 1343 1345"/>
    </vehicle>
    <vehicle id="266_0" type="car" depart="23791.00">
        <route edges="1379 1992 1990 1988 1156"/>
    </vehicle>
    <vehicle id="632_0" type="car" depart="23838.00">
        <route edges="1613 1614 1615 1616 1461 1462 1463 1464 1465 1466 1467 1888 1493 1494 1495 1496 1497 1498 1569 1570 1571 1572 1573 1574 1575 1576 1577 1578 1579 1580 765 766 767 768 299 1153 1154 1589 1591 1657 1658 1659 1660 1661 1662"/>
    </vehicle>
    <vehicle id="253_0" type="car" depart="24164.00">
        <route edges="735 736 1050 1052 1054 1056 1058 1060 1062 1621 1622 2075 2077 1893 1635 1637 1639 1641 1643 1645 1647 1649 1651 1653 1655 429 1778 1776 1774 1772 1770 237 235 233 28 26 24 22 20 18 16 14 12 10 8 1869 1867 530 528 526 524 522 520 518 516 515 517 519 521 523"/>
    </vehicle>
    <vehicle id="117_0" type="car" depart="24464.00">
        <route edges="158 160 162 436 437 438 439 1561 1562 1563 1482 1483 1484 1485 1486 1487 1488 1489 1490 1491 1492 469 470 1011 1013 1119 1072 1074"/>
    </vehicle>
    <vehicle id="27_0" type="car" depart="24654.00">
        <route edges="425 423 244 246 248 1541 362 364 366 368 370 372 798 910 812 814 816 818 820 822 824 826 828 830 832 834"/>
    </vehicle>
    <vehicle id="843_0" type="car" depart="24670.00">
        <route edges="281 283 284 282 280 278 276 1530 1528 1526 269 267 265 263 261 259 257 255 552 553 554 555 556 1385 1387 1313 1315 1317 1319 1321 1323 1325 1327 1329 1331 1333 1335 1337 565 567 569 571 1836 1837 1490 1491 1492 1617 1618 1619 1620 1601 1602 1603 1604 1605 1606 1607 1608 1609 481 482 2187 2188 2189 2190 2191 2192 2182 590 591 592 1575 1576 1577 1578 1579 1580 765 766 767 768 299 1153 1154 1589 1591 1593 1595 1597 1599 1623 1625 1626 1624 1600 1598"/>
    </vehicle>
    <vehicle id="221_0" type="car" depart="24766.00">
        <route edges="1064 1065 1026 1027 1028 1029 1030 1031 1032 1033 1034 1035 1036 1037 1038 1039 1040 1041 1155 1987 1989 1991 1380 1361 1362 1363 1364 1365 1366 1367 1368 1369 1370 1371 1372 1373 2041 2043 2045 603 605 607 609 611 613 615 547 548 549 550 551 254 256 258 260 262 264 266 268 1525 1527 1529 1531 593 595 581 583 584 582"/>
    </vehicle>
    <vehicle id="807_0" type="car" depart="24857.00">
        <route edges="993 994 995 996 1144 1145 1146 1580 765 766 767 768 299 771 772 773 774 1564 1565 1566 1567 1568 1569 1570 585 586 587 588 589 430 431 432 433 434 435 436 437 438 439 1561 1562 1563 1482 1483 1484 1485 1486 1487 1488 1489 1490 1491 1492 1617 1618 1619 1620 1601 1602 1603 1604 1605 1606 1607 1608 1609 481 482 2187 2188 2189 2190 1269 1271 1273 1275 1169 1171 1173 1175 1177 1179 1181 1182 1180 1178"/>
    </vehicle>
    <vehicle id="243_0" type="car" depart="24876.00">
        <route edges="2071 2073 2075 2077 1893 1634 1632 1630 1628 406 408 410 412 414 416 418 420 421 419 417"/>
    </vehicle>
    <vehicle id="549_0" type="car" depart="25081.00">
        <route edges="1041 1155 1987 1989 1991 1380 1361 1362 1363 1364 1365 1366 1367 1368 1369 1370 1371 1372 1373 2041 2043 2045 603 605 607 609 611 613 615 547 548 549 550 551 552 553 554 555 556 1385 1387 1313 1315 1317 1319 1321 1323 1325 1327 1329 1331 1333"/>
    </vehicle>
    <vehicle id="454_0" type="car" depart="25143.00">
        <route edges="1601 1602 1603 1604 1605 1606 1607 1608 1609 542 543 544 1482 1483 1484 496 497 498 572 570 568 566 1339 1341 1343 1345 1347 1349 1351 1353 1355 1357 1307 1309 1311 1388 1386 557 558 559 560 561 562 563 564 546 547 548 549 550 551 254 256 258 260 262 264 266 268 1525 1527 1529 1531 1533 1535 1537 1539 1541 362 364 366 368 370 372 798 909 907 905 903 901 899 897 895 893 891 889"/>
    </vehicle>
    <vehicle id="585_0" type="car" depart="25145.00">
        <route edges="1989 1991 1380 1361 1362 1363 1364 1365 1366 1367 1368 1369 1370 1371 1372 1373 2041 2043 2045 603 605 607 609 611 613 615 547 548 549 550 551 552 553 554 555 556 1385 1387 1313 1315 1317 1319 1321 1323 1325 1327 1329 1331 1333 1335 1337 565 567 569 571 1836 1837 1490 1491 1492 1617 1618 1619 1620 1601 1602 1603 1604 1605 1606 1607 1608 1609 481 482 2187 2188 2189 2190 1269 1271 1273 1275 1169 1171 1173 1175 1177 1179 1181 1139 1140 1141 1142 1143"/>
    </vehicle>
    <vehicle id="511_0" type="car" depart="25185.00">
        <route edges="1434 648 646 644 434 435 436 437 438 439 1561 1562 1563 1482 1483 1484 496 497 498 572 570 568 566 1339 1341 1343 1345 1347 1349 1351 1353 1355 1357 1307 1309 1311 1388 1386 557 558 559 560 561 562 563 564 546 547 548 549 550 551 254 256 258 260 262 264 266 268 1525 1527 1529 1531 1533 1535 1537 1539 1541 362 364 366 368 370 372 798 910 812 814 816 818 820 822 824 826 828 830 832 834 836 838 840 842 844 846 848 850 852 854 856 858 860 862 864 866 868 870 872 874 876 878 880 882"/>
    </vehicle>
    <vehicle id="839_0" type="car" depart="25349.00">
        <route edges="26 24 22 20 18 16 14 12 10 1957 1955 1953 782 783"/>
    </vehicle>
    <vehicle id="725_0" type="car" depart="25465.00">
        <route edges="90 91 2105 1960 1961 212 216 202 204 1866 1868 7 9 11 13 15 17 19 21 23 25 27 232 234 236 1769 1771 1773 1775 1777 428 1656 1654 1652 1650 1648 1646 1644 1642 1640 1638 1636 1894 1560 1558 1556 1554 1552 1550 1548 1546 981 982 983 984 985 986 987 988 274 730 731 732 733"/>
    </vehicle>
    <vehicle id="407_0" type="car" depart="25496.00">
        <route edges="1669 1671 1481"/>
    </vehicle>
    <vehicle id="532_0" type="car" depart="25574.00">
        <route edges="1815 1816 1817 1818 1819 1820 1821 1822 1823 1828 1830 1832 1028 1029 1030 1031 1032 1033 1034 1035 1036 1037 1038 1039 1040 1041 1155 1987 1989 1991 1380 1361 1362 1363 1364 1365 1366 1367 1368 1369 1370 1371 1372 1373 2041 2043 2045 603 605 607 609 611 613 615 547 548 549 550 551 254 256 258 506 504"/>
    </vehicle>
    <vehicle id="768_0" type="car" depart="25622.00">
        <route edges="249 247 245 422 1233 1218 1240"/>
    </vehicle>
    <vehicle id="499_0" type="car" depart="25647.00">
        <route edges="1656 1654 1652 1650 1648 1646 1644 1642 1640 1638 1636 1894 2078 2076 2074 1813 2129 1063 1061 1059 1057 1055 1053 1051 1049 1047 1045 1043 1042 1044"/>
    </vehicle>
    <vehicle id="440_0" type="car" depart="25750.00">
        <route edges="679 1071 1069 1067 228 230 28 26 24 22 20 18 16 14 12 10 8 1869 1867 352 354 1860 2194"/>
    </vehicle>
    <vehicle id="339_0" type="car" depart="25787.00">
        <route edges="1601 1602 1603 1604 1605 1606 1607 1608 1609 542 543 544 1482 1483 1484 496 497 498 572 570 568 566 1339 1341 1343 1345 1347 1349 1351 1353 1355 1357 1307 1309 1311 1388 1386 557 558 559 560 561 562 563 564 546 616 614 612 610 608 606 604 1283 1285 1287 1289 1290"/>
    </vehicle>
    <vehicle id="507_0" type="car" depart="25819.00">
        <route edges="1514 1512 1510 1508 1506 1504 1502 1500 2078 2076 2074 2072 2070 2068 2066 2064 1925 1923"/>
    </vehicle>
    <vehicle id="968_0" type="car" depart="25918.00">
        <route edges="1354 1352 1351 1353 1355 1357 1307 1309 1311 1388 1386 557 558 559 560 561 562 563 564 546 547 548 549 550 551 254 256 258 260 262 264 266 268 1525 1527 1529 1531 1533 1535 1537 1539 1541 362 364 366 368 370 372 798 910 812 814"/>
    </vehicle>
    <vehicle id="99_0" type="car" depart="25919.00">
        <route edges="529 1866 1868 7 9 11 13 15 17 19 21 23 25 27 232 234 236 63 61 59 1859 696 694 692 690"/>
    </vehicle>
    <vehicle id="986_0" type="car" depart="25924.00">
        <route edges="500 258 260 262 264 266 268 1672 1670 1668 1666 1665"/>
    </vehicle>
    <vehicle id="13_0" type="car" depart="25932.00">
        <route edges="622 752 753 754 755 756 757 758 2057 2059 2061 2063 2065 2067 2069 2128 2129 1063 1061 1059 1057"/>
    </vehicle>
    <vehicle id="365_0" type="car" depart="25972.00">
        <route edges="1037 1038 1039 1040 1041 1155 1987 1989 1991 1380 1361 1362 1363 1364 1365 1366 1367 1368 1369 1370 1371 1372 1373 2041 2043 2045 603 605 607 609 611 613 615 547 548 549 550 551 552 553 554 555 556 1385 1387 1313 1315 1317 1319 1321 1323 1325 1327 1329 1331 1333 1335 1337 565 567 569 571 1836 1837 1490 1491 1492 1617 1618 1619 1620 1601 1602 1603 1604 1605 1606 1607 1608 1609 481 482 2187 2188 2189 2190 2191 2192 2182 590 591 592 1575 1576 1577 1578 1579 1580 765 766 767 768 299 771 772 773 774 1564 1565 1566 1567 1568 1569 1570 585 586 587 588 589 430 660 658 656 655"/>
    </vehicle>
    <vehicle id="989_0" type="car" depart="25986.00">
        <route edges="348 349 333 238 240 242 244 246 248 1540 1538 1536 1534 1532 1530 1528 1526 1481 1479 1468 253 251 250"/>
    </vehicle>
    <vehicle id="173_0" type="car" depart="26024.00">
        <route edges="142 144 146 148 150 152 153 151 149 147 145 143 141 2171 2173 2175 2177 2179 214 212 216 202 204 1866 1868 7 1957 1955 1953"/>
    </vehicle>
    <vehicle id="953_0" type="car" depart="26126.00">
        <route edges="1009 183 507 509 511 513 444 445 446 447 448 449 450 451 452 116 118 329 327 325 1494 1495 1496 1497 1498 1569 1570 585 586 587 588 589 430 431 432 433 643 645 647 648"/>
    </vehicle>
    <vehicle id="987_0" type="car" depart="26140.00">
        <route edges="1469 1478 1480 269 267 265 263 261 259 257 255 552 553 554 555 556 1385 1387 1313 1315 1317 1319 1321 1323 1325 1327 1329 1331 1333 1335 1337 565 567 569 571 1836 1837 1490 1491 1492 1617 1618 1619 1620 1601 1602 1603 1604 1605 1606 1607 1608 1609 481 482 2187 2188 2189 2190 2191 2192 2182 590 591 592 1575 1576 1577 1578 1579 1580 765 766 767 768 299 1153 1154 1589 1591 1593 1137 1135 1133 1132"/>
    </vehicle>
    <vehicle id="251_0" type="car" depart="26157.00">
        <route edges="1387 1313 1315 1317 1319 1321 1323 1325 1327 1329 1331 1333 1335 1337 565 567 569 571 1836 1837 1490 1491 1492 1617 1618 1619 1620 1601 1602 1603 1604 1605 1606 1607 1608 1609 481 482 2187 2188 2189 2190 1269 1271 1273 1275 1169 1171 97 95 93"/>
    </vehicle>
    <vehicle id="133_0" type="car" depart="26237.00">
        <route edges="1617 1618 1619 1620 1601 1602 1603 1604 1605 1606 1607 1608 1609 542 543 544 1482 1483 1484 1485 1486 1487 1488 1489 1490 1491 1492 469 470 1011 1013 1119 1121"/>
    </vehicle>
    <vehicle id="465_0" type="car" depart="26312.00">
        <route edges="1717 1719 1721 1723 1725 1727 1729 1731 1733 1735 1737 1739 1741 1743 1745 1747 1749 1751 1753 1755 1757 1759 1761 1763 1765 1767 1768 1766 1764 1762 1760 1758 1756 1754 1752 1750 1748 1746 1744 1742 1740 1738 1736 1734 1732 1730 1728 1726 1724 1722 1720 1718 1716 1714 1712 1710 1708 1706 1704 1702 1700 1698 1696 1694 1692 1690 1688 1686 1684 1682 1680 1678 1676 1674 2069 2071 2073 2075 2077 1893 1635 1637 1639 1641 1643 1645 1647 1649 1651 1653 1655 429 1778 1776 1774 1772 1770 237 235 233 28 26 24 22 20 18 16 14 12 10 1957 1955 1953 1951 1949 1947 1945 1943 1941 1939"/>
    </vehicle>
    <vehicle id="295_0" type="car" depart="26338.00">
        <route edges="1412 1410 1408 1406 1404 1402 1400 1398 1396 1394 1392 1962 1964 1062 1621 1622 2075 2077 1560 1558 1556"/>
    </vehicle>
    <vehicle id="830_0" type="car" depart="26392.00">
        <route edges="377 375 1861 355 353 205 203 217 213 215 2180 2178 2176 2174 2172 2170 2137 2136"/>
    </vehicle>
    <vehicle id="933_0" type="car" depart="26410.00">
        <route edges="606 604 603 605 607 609 611 613 615 547 548 549 550 551 254 256 258 260 262 264 266 268 1525 1527 1529 1531 1533 1535 1537 1539 1541 362 364 366 368 370 372 798 910 812 814 816 818 820 822 824 826 828 830 832 834 836 838 840 842 844 846 848 850 852 854 856 858 860 862 864 866 868 870 872 874"/>
    </vehicle>
    <vehicle id="833_0" type="car" depart="26419.00">
        <route edges="808 810 811 809 807 805 2069 2071 2073 2075 2077 1893 1635 1637 1639 1641 1643 1645 1647 1649 1651 1653 1655 429 1778 1776 1774 1772 1770 237 235 233 28 26 24 22 20 18 16 14 12 10 66 702 704 706 708 709 707 705 703"/>
    </vehicle>
    <vehicle id="960_0" type="car" depart="26429.00">
        <route edges="1767 1768 1766 1764 1762 1760 1758 1756 1754 1752 1750 1748 1746 1744 1742 1740 1738 1736 1734 1732 1730 1728 1726 1724 1722 1720 1718 1716 1714 1712 1710 1708 1706 1704 1702 1700 1698 1696 1694 1692 1690 1688 1686 1684 1682 1680 1678 1676 1674 2069 2071 2073 2075 2077 1893 1635 1637 1639 1641 1643 1645 1647 1649 1651 1653 1655 429 1778 1776 1774 1772 1770 237 235 233 28 26 24 22 20 18 16 14 726 728 729"/>
    </vehicle>
    <vehicle id="941_0" type="car" depart="26481.00">
        <route edges="1357 1307 1309 1311 1312 1310 1308 1358 1356 1354 1352 320 322 1187 1189 1958 1959"/>
    </vehicle>
    <vehicle id="223_0" type="car" depart="26510.00">
        <route edges="1208 1206 218 220 222 224 226 228 230 232 234 236 1769 1771 1773 1775 1777 428 1656 1654 1652 1650 1648 1646 1644 1642 1640 1638 1636 1894 2078 2076 2074 1813"/>
    </vehicle>
    <vehicle id="907_0" type="car" depart="26620.00">
        <route edges="2113 2111 2109 2107 2105 1960 1961 212 216 202 204 1866 1868 7 9 11 13 15 17 19 21 23 25 27 232 234 236 1769 1771 1773 1775 1777 428 1656 1654 1652 1650 1648 1646 1644 1642 1640 1638 1636 1894 1499 1501 1503 1505 1507 1509 1511 1513 1515 1517 1519 1521 1523 1524"/>
    </vehicle>
    <vehicle id="21_0" type="car" depart="26670.00">
        <route edges="146 148 150 152 153 151 149 147 145 143 141 2171 2173 2175 2177 2179 214 212 216 202 204 1866 1868 7 9 11 13 15 17 19 21 23 25 27 232 234 236 1769 1771 1773 1775 1777 428"/>
    </vehicle>
    <vehicle id="153_0" type="car" depart="26672.00">
        <route edges="674 672 670 668 666 664 662 1216 1214 1212 1210 1208 1206 218 85 83 81 79 78"/>
    </vehicle>
    <vehicle id="441_0" type="car" depart="26729.00">
        <route edges="961 960 962 569 571 1836 1837 1490 1491 1492 1617 1618 1619 1620 1601 1602 1603 1604 1605 1606 1607 1608 1609 481 482 2187 2188 2189 2190 2191 2192 2182 590 591 592 1575 1576 1577 1578 1579 1580 765 766 767 768 299 771 772 773 774 1564 196 197 198 199 200 479 1889 1890 545 458 459 460 461 462 444 445 446 447 448 449 450 451 452"/>
    </vehicle>
    <vehicle id="191_0" type="car" depart="26835.00">
        <route edges="60 62 237 235 233 28 26 24 22 1999 2001 2003 2005 2146 2144 2143"/>
    </vehicle>
    <vehicle id="662_0" type="car" depart="26900.00">
        <route edges="1816 1817 1818 1819 1820 1821 1822 1823 1828 1830 1832 1028 1029 1030 1031 1032 1033 1034 1035 1036 1037 1038 1039 1040 1041 1155 1987 1989 1991 1380 1361 1362 1363 1364 1365 1366 1367 1368 1369 1370 1371 1372 1373 2041 2043 2045 603 605 607 609 611 613 615 547 548 549 550 551 254 256 258 260 262 264 266 268 1525 1527 1529 1531 1533 1535 1537 1539 1541 362 364 366 368 370 372 798 797 373 371 369 367 365 363"/>
    </vehicle>
    <vehicle id="562_0" type="car" depart="26909.00">
        <route edges="916 917 918 919 920 921 922 923 912 1367 1368 1369 1370 1371 1372 1373 2041 2043 2045 1283 1285 1287 1812 1810 1809 1811"/>
    </vehicle>
    <vehicle id="733_0" type="car" depart="26934.00">
        <route edges="2069 2071 2073 2075 2077 1893 1635 1637 1639 1641 1643 1645 1647 1649 1651 1653 1655 429 1778 1776 1774 1772 1770 237 235 233 231 229 227 225 223 36 38 40 41 39 37"/>
    </vehicle>
    <vehicle id="730_0" type="car" depart="27017.00">
        <route edges="302 304 1136 1594 1592 1590 1381 1382 1383 1384 1564 1565 1566 1567 1568 1569 1570 585 586 587 588 589 430 431 432 433 434 435 163 161"/>
    </vehicle>
    <vehicle id="56_0" type="car" depart="27019.00">
        <route edges="1342 1340 565 567 569 571 1836 1837 1490 1491 1492 1617 1618 1619 1620 1601 1602 1603 1604 1605 1606 1607 1608 1609 481 482 2187 2188 2189 2190 2191 2192 2182 590 591 592 1575 1576 1577 1578 1579 1580 765 766 767 768 299 1153 1154 1589 1591 1593 1137 1135 1133 1439 1441 1 3"/>
    </vehicle>
    <vehicle id="263_0" type="car" depart="27028.00">
        <route edges="70 72 1993 1995 1997 21 23 25 27 231 229 227 225 223 221"/>
    </vehicle>
    <vehicle id="519_0" type="car" depart="27071.00">
        <route edges="858 860 862 864 866 868 870 872 874 876 878 880 882 884 886 888 890 892 894 896 898 900 902 904 906 908 797 373 371 369 367 365 363 1543 1887"/>
    </vehicle>
    <vehicle id="811_0" type="car" depart="27122.00">
        <route edges="86 87 88 89 90 91 2105 1960 1961 212 216 202 204 1866 1868 7 9 11 13 15 17 19 21 23 25 27 231 229 227 225 223 222"/>
    </vehicle>
    <vehicle id="179_0" type="car" depart="27124.00">
        <route edges="917 918 919 920 921 922 923 912 1367 1368 1369 1370 1371 1372 1373 1374 1375 1376 1377 1378 1379 1380 1361 1362 1363 1364 1365 1366 913 716 717 718 719 720 721"/>
    </vehicle>
    <vehicle id="788_0" type="car" depart="27131.00">
        <route edges="1833 1832 1028 1029 1030 1031 1032 1033 1034 1035 1036 1037 1038 1039 1040 1041 1155 1987 1989 1991 1380 1361 1362 1363 1364 1365 1366 1367 1368 1369 1370 1371 1372 1373 2041 2043 2045 603 605 607 609 611 613 615 547 548 549 550 551 552 553 554 555 556 1385 1387 1313 1315 1317 1319 1321 1323 1325 1327 1329 1331 1333 1335 1337 565 567 569 571 1836 1837 1490 1491 1492 1617 1618 1619 1620 1601 1602 1603 1604 1605 1606 1607 1608 1609 481 482 2187 2188 2189 2190 2191 2192 2182 590 591 592 1575 1576 1577 1578 1579 1580 765 766 767 768 299 1153 1154 1589 1591 1593 1137 1135 1133"/>
    </vehicle>
    <vehicle id="37_0" type="car" depart="27202.00">
        <route edges="1058 1059 1057 1055 1053 1052"/>
    </vehicle>
    <vehicle id="515_0" type="car" depart="27225.00">
        <route edges="713 711 1210 1208 1206 218 220 222 224 226 228 230 28 26 24 22 1999 2001 2003 2005 2007 2009 2011"/>
    </vehicle>
    <vehicle id="480_0" type="car" depart="27240.00">
        <route edges="1606 1607 1608 1609 542 543 544 1482 1483 1484 496 497 498 572 570 568 566 1339 1341 1343 1345 1347 1349 1351 1353 1355 1357 1307 1309 1311 1388 1386 557 558 559 560 561 562 563 564 546 547 548 549 550 551 254 256 258 260 262 264 266"/>
    </vehicle>
    <vehicle id="59_0" type="car" depart="27284.00">
        <route edges="1046 1048 1050 1052 1054 1056 1058 1060 1062 1621 1622 2075 2077 1893 1635 1637 1639 1641 1643 1645 1647 1649 1651 1653 1655 429 1778 1776 1774 1772 1770 237 235 233 28 26 24 22 1999 2001 2003 2005 2146 2144 2143"/>
    </vehicle>
    <vehicle id="726_0" type="car" depart="27325.00">
        <route edges="1289 1290 1288 1286 1284 2046 2044 2042 1374 1375 1376 1377 1378 1379 1992 1990 1988 1156 1109 1110 1111 1112 1113 1114 1115 1116 1117 1103 1104 1105 1106 1107 1033 1804 1791 1793 1795 1797"/>
    </vehicle>
    <vehicle id="315_0" type="car" depart="27327.00">
        <route edges="2071 2073 2075 2077 1893 1635 1637 1639 1641 1643 1645 1647 1649 1651 1653 1655 429 1778 1776 1774 1772 1770 237 235 233 28 26 24 22 20 18 16 14 12 10 8 1869 1867 205 203 217 213 215 2180 2178 2176 2174 2172 140 142 144 146 148 150 152 153 151 149 147"/>
    </vehicle>
    <vehicle id="671_0" type="car" depart="27340.00">
        <route edges="23 25 27 232 234 236 1769 1771 1773 1775 1777 428 1656 1654 1652 1650 1648 1646 1644 1642 1640 1638 1636 1894 2078 2076 2074 1813 2129 2148 2149 1391 1393 2080 2079"/>
    </vehicle>
    <vehicle id="996_0" type="car" depart="27370.00">
        <route edges="2108 2110 2112 2113 2111 2109 2107 2105 1960 1961 212 216 202 204 1866 1868 7 9 11 13 15 17 19 21 23 25 27 232 234 236 1769 1771 1773 1775 1777 428 1656 1654 1652 1650 1648 1646 1644 1642 1640 1638 1636 1894 2078 2076 2074 1813 2129 1063 1061 1059 1057 1055"/>
    </vehicle>
    <vehicle id="475_0" type="car" depart="27399.00">
        <route edges="1772 1770 237 235 233 28 26 24 22 1999 2001 2003 2005 2007 2009 2011 2013 2015"/>
    </vehicle>
    <vehicle id="78_0" type="car" depart="27415.00">
        <route edges="1182 1180 1178 1176 1174 1172 1170 1276 1274 1272 1270 2191 2192 2182 590 591 592 1575 1576 1577 1578 1579 1580 765 766 767 768 299 771 772 773 774 1564 1565 1566 1567 1568 1569 1570 585 586 587 588 589 430 431 432 433 434 435 436 437 438 439 1561 1562 1563 1482 1483 1484 496 497 498 572 570 568 566 1338 1336 1334 1332 1330 1328 1326 1324 1322 1320 1318 1316"/>
    </vehicle>
    <vehicle id="928_0" type="car" depart="27424.00">
        <route edges="605 607 609 610 608 606 604 2046 2044 2042 1374 1375 1376 1377 1378 1379 1992 1990 1988 1156 1109 1110 1111 1112 1113 1114 1115 1116 1117 1103 1104 1105 1106 1107 1033 1804 1791 1793"/>
    </vehicle>
    <vehicle id="226_0" type="car" depart="27453.00">
        <route edges="998 195 1186 1184 1182 1180 1178 1176 1174 1172 1170 1276 1274 1272 1270 2191 2192 2182 590 591 592 1575 1576 1577 1578 1579 1580 765 766 767 768 299 771 772 773 774 1564 1565 1566 1567 1568 1569 1570 585 586 587 588 589 430 660 658"/>
    </vehicle>
    <vehicle id="435_0" type="car" depart="27455.00">
        <route edges="1650 1648 1646 1644 1642 1640 1638 1636 1894 2078 2076 2075 2077"/>
    </vehicle>
    <vehicle id="584_0" type="car" depart="27465.00">
        <route edges="838 840 842 844 846 848 850 852 854 856 858 860 862 864 866 868 870 872 874 876 878 880 882 884 886 888 890 892 894 896 898 900 902 904 906 908 797 373 371 369 367 365 363 1542 249 247 404 405 424 426 1242 1217"/>
    </vehicle>
    <vehicle id="52_0" type="car" depart="27485.00">
        <route edges="609 611 613 615 547 548 549 550 551 254 256 258 260 262 264 266 268 1525 1527 1529 1531 1533 1535 1537 1539 1541 362 364 366 368 370 372 798 909 907 905 903 901 899 897 895 893 891 889 887 885 883 881 879 877 875 873 871 869 867 865 863 861 859 857 855 853 851 849 847 845 843 841 839"/>
    </vehicle>
    <vehicle id="708_0" type="car" depart="27502.00">
        <route edges="396 800 801 802 803 360 361 2167 1306 916 917 918 919 920 921 922 923 912 1367 1368 1369 1370 1371 1372 1373 2041 2043 2045 603 605 607 609 611 613 615 547 548 549 550 551 552 553 554 555 556 1385 1387 1313 1315 1317 1319 1321 1323 1325 1327 1329 1331 1333 1335 1337 565 567 569 571 1836 1837 1490 1491 1492 1617 1618 1619 1620 1601 1602 1603 1604 1605 1606 1607 1608 1609 481 482 2187 2188 2189 2190 1269 1271 1273 1275 1169 1171 1173 1175"/>
    </vehicle>
    <vehicle id="915_0" type="car" depart="27559.00">
        <route edges="293 295 297 298 296 294 1775 1777 428 1656 1654 1652 1650 1648 1646 1644 1642 1640 1638 1636 1894 2078 2076 2074 2072 2070 1673 1675 1677 1679 1681 1683"/>
    </vehicle>
    <vehicle id="190_0" type="car" depart="27588.00">
        <route edges="819 817 815 813 911 910 812 814 816 818 820 822 784 799 800 801 802 803 360 361 2167 1306 1359 1302 1298 1162 1138 1295 1080 1081 1082 1083 1084 999 1001 1003 1005 1007 1009 183 507 509 511 513 444 445 446 447 448 449 450 451 452 116 118 120 122 124 126 128 435 163 161 159 1192"/>
    </vehicle>
    <vehicle id="903_0" type="car" depart="27624.00">
        <route edges="1426 1424 1444 1442 1440 1132 1134 1136 1594 1592 1590 1381 1382 1383 1384 1564 1565 1566 1567 1568 1569 1570 585 586 587 588 589 430 431 432 433 434 435 436 437 438 439 1561 1562 1563 1482 1483 1484 496 497 498 572 570 568 566 1338 1336 1334 1332 1330 1328 1326 1324 1322 1320 1318 1316 1314 1312 1310 1308 1358 1356 1354"/>
    </vehicle>
    <vehicle id="831_0" type="car" depart="27667.00">
        <route edges="2077 1893 1635 1637 1639 1641 1643 1645 1647 1649 1651 1653 1655 429 1778 1776 293 295 297 298 296"/>
    </vehicle>
    <vehicle id="665_0" type="car" depart="27668.00">
        <route edges="1324 1322 1320 1318 1316 1314 1313 1315 1317 1319 1321 1323 1325 1327 1329 1331 1333 1335 1337 565 567 569 571 1836 1837 1490 1491 1492 469 470 1011 1096 1097"/>
    </vehicle>
    <vehicle id="449_0" type="car" depart="27700.00">
        <route edges="1537 1538 1536 1534 1532 1530 1528 1526 269 267 265 263 261 259 257 255 552 553 554 555 556 1385 1387 1313 1315 1317 1319 1321 1323 1325 1327 1329 1331 1333 1335 1337 565 567 569 571 1836 1837 1490 1491 1492 1617 1618 1619 1620 1601 1602 1603 1604 1605 1606 1607 1608 1609 481 482 2187 2188 2189 2190 2191 2192 2182 590 591 592 1575 1576 1577 1578 1579 1580 765 766 767 768 299 771 772 773 774 1564 1565 1566 1567 1568 1569 1570 585 586 587 588 589 430 431 432 433 643 645 647 649 651 653"/>
    </vehicle>
    <vehicle id="697_0" type="car" depart="27705.00">
        <route edges="2008 2006 2004 2002 2000 21 23 25 27 232 234 236 1769 1771 1773 1775 1777 428 1656 1654 1652 1650 1648 1646 1644 1642 1640 1638 1636 1894 2078 2076 2074 1813 2129 1063 1062"/>
    </vehicle>
    <vehicle id="143_0" type="car" depart="27712.00">
        <route edges="1856 2065 2067 2069 2071 2073 2075 2077 1893 1635 1637 1639 1641 1643 1645 1647 1649 1651 1653 1655 429 1778 1776 1774 1772 1770 237 235 233 28 26 24 22 20 18 16 14 12 10 8 1869 1867 352 354 1860 374 376"/>
    </vehicle>
    <vehicle id="92_0" type="car" depart="27721.00">
        <route edges="1435 1437 1438 1436 1892 1888 1889 1890 545 458 459 460 461 462 514 512 510 508 1294 1292 1290 1288 1286 1284 2046 2044 2042 1374 1375 1376 1377 1378 1379 1992 1990 1988 1156 1109 1110 1111 1112 1113 1114 1115 1116 1117 1118 1432 1064 1065 1026 1027 1028 1029 1030 1031"/>
    </vehicle>
    <vehicle id="923_0" type="car" depart="27758.00">
        <route edges="1507 1509 1511 1513 1515 1517 1519 1521 1523 1524 1522 1520 1518 1516 1514 1512 1510 1508 1506 1504 1502 1500 1893 1635 1637 1639 1641 1643 1645 1647 1649 1651 1653 1655 429 1778 1776 1774 1772 289"/>
    </vehicle>
    <vehicle id="518_0" type="car" depart="27775.00">
        <route edges="768 299 771 772 773 774 1564 1565 1566 1567 1568 1569 1570 585 586 587 588 589 430 431 432 433 434 435 436 437 438 439 1561 1562 1563 1482 1483 1484 496 497 498 572 570 568 566 1339 1341 1343 1345 1347 1349 1351 1353 1355 1357 1307 1309 1311 1388 1386 557 558 559 560 561 562 563 564 546 547 548 549 550 551 254 256 258 260 262 264 266 268 1525 1527 1529 1531 1533 1535 1537 1539 1541 1543 1887 1885 1883 1881 1879 1877 1875"/>
    </vehicle>
    <vehicle id="69_0" type="car" depart="27776.00">
        <route edges="1915 1916 1914 1912 1910 1908 1906 1904 1902 1900 1898 1896 1654 1652 1650 1648 1646 1644 1642 1640 1638 1636 1894 2078 2076 2074 1813 2129 2148 2149 1391 1393 2080"/>
    </vehicle>
    <vehicle id="887_0" type="car" depart="27791.00">
        <route edges="977 978 793 795 437 438 439 1561 1562 1563 1482 1483 1484 496 497 498 572 570 568 566 1339 1341 1343 1345 1347 1349 1351 1353 1355 1357 1307 1309 1311 1388 1386 557 558 559 560 561 562 563 564 546 547 548 549 550 551 254 256 258 260 262 264 266 268 1525 1527 1529 1531 1533 1535 1537 1539 1541 362 364 366 368 370 372 798 910 812 814 816 818 820 822 824 826 828 830 832 834 836 838 840 842 844 846 848 850 852 854 856 858 860 862 864 866 868 870 872 874 876 878 880 882 884 886 888 890 892 894 896 898 900"/>
    </vehicle>
    <vehicle id="650_0" type="car" depart="27818.00">
        <route edges="1036 1037 1038 1039 1040 1041 1155 1987 1989 1991 1380 1361 1362 1363 1364 1365 1366 1367 1368 1369 1370 1371 1372 1373 1374 1375 1376 1377 1378 1379 1992 1990 1988 1156 1109 1110 1111 1112 1113 1114 1115 1116 1117 1103 1104 1105 1106 1107 1033 1804"/>
    </vehicle>
    <vehicle id="685_0" type="car" depart="27818.00">
        <route edges="872 874 876 878 880 882 884 886 888 890 892 894 896 898 900 902 904 906 908 797 373 371 369 367 365 363 1542 1540 1538 1537"/>
    </vehicle>
    <vehicle id="481_0" type="car" depart="27838.00">