<routes xmlns:xsi="http://www.w3.org/2001/XMLSchema-instance" xsi:noNamespaceSchemaLocation="http://sumo.dlr.de/xsd/routes_file.xsd">
    <vType id="car" vClass="passenger" />
    <vType id="bicycle" vClass="bicycle" />
    <route edges="371 369 367 365 363 1542 1540 1538 1536 1534 1532 1530 1528 1526 269 267 265 263 261 259 257 255 552 553 554 555 556 1385 1387 1313 1315 1317 1319 1321 1323 1325 1327 1329 1331 1333 1335 1337 565 567 569 571 1836 1837 1490 1491 1492 1617 1618 1619 1620 1601 1602 1603 1604 1605 1606 1607 1608 1609 481 482 2187 2188 2189 2190 2191 2192 2182 590 591 592 1575 1576 1577 1578 1579 1580 765 766 767 768 299 1153 1154 1589 1591 1657 1658 1659" id="r_0" />
    <route edges="1666 1665 1667 1669 1671 269 267 265 263 261 259 257 255 552 553 554 555 556 1385 1387 1313 1315 1317 1319 1321 1323 1325 1327 1329 1331 1333 1335 1337 565 567 569 571 1836 1837 1490 1491 1492 1617 1618 1619 1620 1601 1602 1603" id="r_1" />
    <route edges="1349 1350 1348 1346 1344 1342 1340 565 567 569 571 1836 1837 1490 1491 1492 1617 1618 1619 1620 1601 1602 1603 1604 1605 1606 1607 1608 1609 481 482 2187 2188 2189 2190 2191 2192 2182 590 591 592 1575 1576 1577 1578 1579 1580 765 766 767 768 299 771 772 773 774 1564 1565 1566 1567 1568 1569 1570 585 586 587 588 589 430 431 432 433 434 435 436 796 794 793 795" id="r_2" />
    <route edges="1298 1162 1138 1295 1080 1081 1082 1083 1084 999 1001 1003 1005 1007 1009 183 1294 1292 1290 1288 1286 1284 603 605 607 609 611 613 615 547 548 549 550 551 254 256 258 260 262 264 266 268 1525 1527 1529 1531 1533 1535 1537 1539 1541 362 364 366 368 370 372 798 910 812 814 816 818 820" id="r_3" />
    <route edges="2161 29 31 33 2113 2111 2109 2107 2105 1960 1961 212 216 202 204 1866 1868 7 9 11 13 15 17 19 21 23 25 27 232 234 236 1769 289 291" id="r_4" />
    <route edges="2161 29 31 33 2113 2111 2109 2107 2105 1960 1961 212 216 202 204 1866 1868 7 9 11 13 15 17 19 21 23 25 27 231 229 1066 1068 1070 680 678 676 674 672 670 668 666 664" id="r_5" />
    <route edges="891 889 887 885 883 881 879 877 875 873 871 869 867 865 863 861 859 857 855 853 851 849 847 845 843 841 839 837 835 833 831 829 827 825 823 821 819 817 815 813 911 797 373 371 369 367 365 363 1542 1540 1538 1536 1534 1532 1530 1528 1526 1672" id="r_6" />
    <route edges="994 995 996 1144 1145 1146 1580 765 766 767 768 299 771 772 773 774 1564 1565 1566 1567 1568 1569 1570 585 586 587 588 589 430 431 432 433 434 435 436 437 438 439 1561 1562 1563 1482 1483 1484 1485 1486 1487 1488 1489 1490 1491 1492 1617 1618 1619 1620 1601 1602 1603 1604 1605 1606 1607 1608 1609 481 482 2187 2188 2189 2190 1269 1271 1273 1275 1168 1166 1164" id="r_7" />
    <route edges="662 1216 1214 1212 1210 1208 1206 218 220 222 224 226 228 230 232 234 236 1769 1771 1773 1775 1777 428 1656 1654 1652 1650 1648 1646 1644 1642 1640 1638 1636 1894 1499 1501 1503 1505 1507 1509 1511 1513 1515 1517 1519 1521 1523 1524 1522 1520 1518 1516 1514 1512 1510 1508 1506" id="r_8" />
    <route edges="1802 1800 1828 1830 1832 1028 1029 1030 1031 1032 1033 1034 1035 1036 1037 1038 1039 1040 1041 1155 1987 1989 1991 1380 1361 1362 1363 1364 1365 1366 1367 1368 1369 1370 1371 1372 1373 2041 2043 2045 603 605 607 609 611 613 615 547 548 549 550 551 254 256 258 260 262 264 266 268 1525 1527 1529 1531 1533 1535 1537 1538" id="r_9" />
    <trip id="1282_0" depart="19475.00" from="428" to="1869" type="car" />
    <trip id="1095_0" depart="21982.00" from="1604" to="1494" type="car" />
    <trip id="732_0" depart="22103.00" from="1074" to="1470" type="car" />
    <trip id="557_0" depart="22845.00" from="1476" to="890" type="car" />
    <trip id="1385_0" depart="23091.00" from="1173" to="921" type="car" />
    <trip id="1467_0" depart="23348.00" from="1054" to="1645" type="car" />
    <trip id="559_0" depart="23349.00" from="278" to="92" type="car" />
    <trip id="229_0" depart="23674.00" from="625" to="235" type="car" />
    <trip id="282_0" depart="23681.00" from="1263" to="955" type="car" />
    <trip id="472_0" depart="23838.00" from="847" to="1441" type="car" />
    <trip id="620_0" depart="24262.00" from="371" to="1659" type="car" />
    <trip id="1301_0" depart="24264.00" from="1666" to="1603" type="car" />
    <trip id="892_0" depart="24270.00" from="1349" to="795" type="car" />
    <trip id="1437_0" depart="24302.00" from="1298" to="820" type="car" />
    <trip id="1318_0" depart="24324.00" from="2161" to="291" type="car" />
    <trip id="1252_0" depart="24355.00" from="2161" to="664" type="car" />
    <trip id="962_0" depart="24486.00" from="891" to="1672" type="car" />
    <trip id="1035_0" depart="24488.00" from="994" to="1164" type="car" />
    <trip id="770_0" depart="24518.00" from="662" to="1506" type="car" />
    <trip id="624_0" depart="24524.00" from="1802" to="1538" type="car" />
    <trip id="189_0" depart="24592.00" from="1643" to="1520" type="car" />
    <trip id="651_0" depart="24600.00" from="1513" to="1946" type="car" />
    <trip id="1366_0" depart="24601.00" from="1516" to="1914" type="car" />
    <trip id="410_0" depart="24758.00" from="1029" to="259" type="car" />
    <trip id="215_0" depart="24828.00" from="2120" to="25" type="car" />
    <trip id="137_0" depart="24858.00" from="860" to="651" type="car" />
    <trip id="81_0" depart="24882.00" from="291" to="1216" type="car" />
    <trip id="99_0" depart="24966.00" from="529" to="690" type="car" />
    <trip id="1237_0" depart="24979.00" from="1382" to="479" type="car" />
    <trip id="1430_0" depart="24994.00" from="126" to="1178" type="car" />
    <trip id="327_0" depart="25004.00" from="1781" to="207" type="car" />
    <trip id="160_0" depart="25071.00" from="653" to="196" type="car" />
    <trip id="794_0" depart="25119.00" from="555" to="647" type="car" />
    <trip id="976_0" depart="25150.00" from="1877" to="1533" type="car" />
    <trip id="994_0" depart="25182.00" from="2194" to="1546" type="car" />
    <trip id="1155_0" depart="25190.00" from="1017" to="1882" type="car" />
    <trip id="63_0" depart="25197.00" from="2092" to="1271" type="car" />
    <trip id="700_0" depart="25246.00" from="1488" to="908" type="car" />
    <trip id="733_0" depart="25316.00" from="2069" to="37" type="car" />
    <trip id="964_0" depart="25425.00" from="362" to="1251" type="car" />
    <trip id="230_0" depart="25446.00" from="1610" to="482" type="car" />
    <trip id="1233_0" depart="25452.00" from="897" to="128" type="car" />
    <trip id="364_0" depart="25472.00" from="333" to="129" type="car" />
    <trip id="489_0" depart="25556.00" from="1566" to="553" type="car" />
    <trip id="971_0" depart="25567.00" from="564" to="1448" type="car" />
    <trip id="119_0" depart="25600.00" from="682" to="950" type="car" />
    <trip id="969_0" depart="25616.00" from="307" to="890" type="car" />
    <trip id="675_0" depart="25645.00" from="27" to="1519" type="car" />
    <trip id="939_0" depart="25670.00" from="572" to="892" type="car" />
    <trip id="686_0" depart="25687.00" from="499" to="657" type="car" />
    <trip id="1014_0" depart="25689.00" from="265" to="238" type="car" />
    <trip id="1276_0" depart="25710.00" from="2120" to="752" type="car" />
    <trip id="839_0" depart="25745.00" from="26" to="783" type="car" />
    <trip id="982_0" depart="25770.00" from="2117" to="384" type="car" />
    <trip id="321_0" depart="25849.00" from="1648" to="48" type="car" />
    <trip id="38_0" depart="25932.00" from="583" to="400" type="car" />
    <trip id="469_0" depart="25935.00" from="1074" to="653" type="car" />
    <trip id="1046_0" depart="25946.00" from="1351" to="1484" type="car" />
    <trip id="337_0" depart="25998.00" from="2167" to="1029" type="car" />
    <trip id="862_0" depart="26023.00" from="619" to="1500" type="car" />
    <trip id="1020_0" depart="26051.00" from="1994" to="1762" type="car" />
    <trip id="1163_0" depart="26074.00" from="1182" to="1251" type="car" />
    <trip id="827_0" depart="26103.00" from="1032" to="2102" type="car" />
    <trip id="617_0" depart="26157.00" from="2045" to="254" type="car" />
    <trip id="836_0" depart="26191.00" from="372" to="241" type="car" />
    <trip id="1196_0" depart="26210.00" from="921" to="571" type="car" />
    <trip id="1348_0" depart="26228.00" from="61" to="760" type="car" />
    <trip id="1087_0" depart="26294.00" from="298" to="1914" type="car" />
    <trip id="1425_0" depart="26294.00" from="42" to="408" type="car" />
    <trip id="279_0" depart="26325.00" from="1427" to="232" type="car" />
    <trip id="212_0" depart="26376.00" from="1062" to="384" type="car" />
    <trip id="1026_0" depart="26427.00" from="1694" to="1622" type="car" />
    <trip id="13_0" depart="26427.00" from="622" to="1057" type="car" />
    <trip id="1065_0" depart="26479.00" from="467" to="770" type="car" />
    <trip id="986_0" depart="26483.00" from="500" to="1665" type="car" />
    <trip id="1133_0" depart="26490.00" from="124" to="822" type="car" />
    <trip id="772_0" depart="26511.00" from="1459" to="495" type="car" />
    <trip id="946_0" depart="26518.00" from="1651" to="2200" type="car" />
    <trip id="344_0" depart="26586.00" from="1833" to="2188" type="car" />
    <trip id="1287_0" depart="26709.00" from="743" to="2137" type="car" />
    <trip id="178_0" depart="26767.00" from="2136" to="2123" type="car" />
    <trip id="56_0" depart="26788.00" from="1342" to="3" type="car" />
    <trip id="1073_0" depart="26789.00" from="278" to="1663" type="car" />
    <trip id="1351_0" depart="26893.00" from="1621" to="686" type="car" />
    <trip id="15_0" depart="26904.00" from="477" to="191" type="car" />
    <trip id="1173_0" depart="26936.00" from="478" to="1605" type="car" />
    <trip id="435_0" depart="26954.00" from="1650" to="2077" type="car" />
    <trip id="1100_0" depart="26970.00" from="2072" to="1844" type="car" />
    <trip id="1154_0" depart="26983.00" from="255" to="482" type="car" />
    <trip id="952_0" depart="26999.00" from="1558" to="1951" type="car" />
    <trip id="1409_0" depart="27010.00" from="2047" to="221" type="car" />
    <trip id="1388_0" depart="27018.00" from="2144" to="987" type="car" />
    <trip id="702_0" depart="27030.00" from="805" to="76" type="car" />
    <trip id="1223_0" depart="27060.00" from="1274" to="1537" type="car" />
    <trip id="1136_0" depart="27067.00" from="1850" to="389" type="car" />
    <trip id="375_0" depart="27083.00" from="1993" to="409" type="car" />
    <trip id="834_0" depart="27103.00" from="917" to="1623" type="car" />
    <trip id="763_0" depart="27124.00" from="1695" to="1924" type="car" />
    <trip id="16_0" depart="27142.00" from="1797" to="1494" type="car" />
    <trip id="974_0" depart="27157.00" from="1122" to="343" type="car" />
    <trip id="420_0" depart="27158.00" from="1803" to="840" type="car" />
    <trip id="1280_0" depart="27162.00" from="1180" to="255" type="car" />
    <trip id="808_0" depart="27197.00" from="1817" to="363" type="car" />
    <trip id="625_0" depart="27207.00" from="2176" to="2070" type="car" />
    <trip id="761_0" depart="27250.00" from="2028" to="429" type="car" />
    <trip id="224_0" depart="27256.00" from="264" to="1204" type="car" />
    <trip id="1132_0" depart="27261.00" from="1608" to="394" type="car" />
    <trip id="1085_0" depart="27262.00" from="1434" to="1174" type="car" />
    <trip id="132_0" depart="27313.00" from="1848" to="809" type="car" />
    <trip id="656_0" depart="27330.00" from="2191" to="843" type="car" />
    <trip id="699_0" depart="27334.00" from="362" to="774" type="car" />
    <trip id="1029_0" depart="27341.00" from="1207" to="1775" type="car" />
    <trip id="393_0" depart="27352.00" from="1442" to="1669" type="car" />
    <trip id="1140_0" depart="27448.00" from="1322" to="791" type="car" />
    <trip id="111_0" depart="27466.00" from="152" to="388" type="car" />
    <trip id="1111_0" depart="27479.00" from="325" to="872" type="car" />
    <trip id="1391_0" depart="27481.00" from="1866" to="83" type="car" />
    <trip id="339_0" depart="27503.00" from="1601" to="1290" type="car" />
    <trip id="593_0" depart="27504.00" from="1286" to="1579" type="car" />
    <trip id="473_0" depart="27516.00" from="1738" to="2161" type="car" />
    <trip id="1229_0" depart="27517.00" from="1438" to="390" type="car" />
    <trip id="1097_0" depart="27522.00" from="1607" to="1037" type="car" />
    <trip id="978_0" depart="27546.00" from="705" to="88" type="car" />
    <trip id="1056_0" depart="27550.00" from="275" to="1383" type="car" />
    <trip id="718_0" depart="27575.00" from="596" to="1888" type="car" />
    <trip id="247_0" depart="27588.00" from="2034" to="1946" type="car" />
    <trip id="325_0" depart="27601.00" from="1728" to="226" type="car" />
    <trip id="609_0" depart="27616.00" from="37" to="1194" type="car" />
    <trip id="1067_0" depart="27630.00" from="1576" to="1292" type="car" />
    <trip id="638_0" depart="27635.00" from="1764" to="1411" type="car" />
    <trip id="1483_0" depart="27640.00" from="1323" to="1173" type="car" />
    <trip id="150_0" depart="27641.00" from="671" to="1299" type="car" />
    <trip id="40_0" depart="27653.00" from="45" to="76" type="car" />
    <trip id="590_0" depart="27728.00" from="371" to="362" type="car" />
    <trip id="1368_0" depart="27735.00" from="676" to="2180" type="car" />
    <trip id="1058_0" depart="27754.00" from="1821" to="258" type="car" />
    <trip id="1398_0" depart="27764.00" from="830" to="1347" type="car" />
    <trip id="1278_0" depart="27767.00" from="1524" to="36" type="car" />
    <trip id="602_0" depart="27795.00" from="1462" to="1573" type="car" />
    <trip id="1036_0" depart="27805.00" from="666" to="1688" type="car" />
    <trip id="0_0" depart="27811.00" from="855" to="568" type="car" />
    <trip id="438_0" depart="27813.00" from="1341" to="898" type="car" />
    <trip id="619_0" depart="27854.00" from="12" to="804" type="car" />
    <trip id="463_0" depart="27877.00" from="635" to="2079" type="car" />
    <trip id="351_0" depart="27892.00" from="663" to="702" type="car" />
    <trip id="173_0" depart="27893.00" from="142" to="1953" type="car" />
    <trip id="846_0" depart="27893.00" from="599" to="1658" type="car" />
    <trip id="1431_0" depart="27899.00" from="410" to="2040" type="car" />
    <trip id="1043_0" depart="27904.00" from="1654" to="1516" type="car" />
    <trip id="832_0" depart="27904.00" from="2167" to="1082" type="car" />
    <trip id="377_0" depart="27908.00" from="1575" to="646" type="car" />
    <trip id="1484_0" depart="27911.00" from="240" to="870" type="car" />
    <trip id="720_0" depart="27914.00" from="1233" to="1604" type="car" />
    <trip id="972_0" depart="27916.00" from="1880" to="304" type="car" />
    <trip id="455_0" depart="27922.00" from="1871" to="585" type="car" />
    <trip id="1410_0" depart="27924.00" from="76" to="1968" type="car" />
    <trip id="549_0" depart="27944.00" from="1041" to="1333" type="car" />
    <trip id="1147_0" depart="27972.00" from="1499" to="1071" type="car" />
    <trip id="913_0" depart="27999.00" from="1155" to="333" type="car" />
    <trip id="947_0" depart="27999.00" from="413" to="693" type="car" />
    <trip id="1047_0" depart="28006.00" from="610" to="1491" type="car" />
    <trip id="26_0" depart="28049.00" from="48" to="2104" type="car" />
    <trip id="1381_0" depart="28089.00" from="395" to="868" type="car" />
    <trip id="1404_0" depart="28090.00" from="2111" to="415" type="car" />
    <trip id="240_0" depart="28124.00" from="246" to="1238" type="car" />
    <trip id="1427_0" depart="28139.00" from="431" to="841" type="car" />
    <trip id="930_0" depart="28163.00" from="744" to="17" type="car" />
    <trip id="1057_0" depart="28177.00" from="1642" to="527" type="car" />
    <trip id="1394_0" depart="28177.00" from="1719" to="704" type="car" />
    <trip id="822_0" depart="28192.00" from="784" to="1671" type="car" />
    <trip id="505_0" depart="28199.00" from="1136" to="876" type="car" />
    <trip id="193_0" depart="28202.00" from="1701" to="1834" type="car" />
    <trip id="1156_0" depart="28214.00" from="363" to="952" type="car" />
    <trip id="899_0" depart="28228.00" from="2161" to="1394" type="car" />
    <trip id="516_0" depart="28229.00" from="379" to="1053" type="car" />
    <trip id="412_0" depart="28244.00" from="1633" to="1520" type="car" />
    <trip id="713_0" depart="28280.00" from="1167" to="1088" type="car" />
    <trip id="181_0" depart="28300.00" from="876" to="1090" type="car" />
    <trip id="115_0" depart="28306.00" from="741" to="1813" type="car" />
    <trip id="80_0" depart="28312.00" from="814" to="2102" type="car" />
    <trip id="906_0" depart="28336.00" from="1388" to="1028" type="car" />
    <trip id="1194_0" depart="28353.00" from="1541" to="585" type="car" />
    <trip id="628_0" depart="28365.00" from="95" to="716" type="car" />
    <trip id="1182_0" depart="28380.00" from="118" to="1368" type="car" />
    <trip id="1243_0" depart="28418.00" from="1785" to="571" type="car" />
    <trip id="1127_0" depart="28419.00" from="2018" to="2075" type="car" />
    <trip id="439_0" depart="28419.00" from="1030" to="1579" type="car" />
    <trip id="1148_0" depart="28441.00" from="1774" to="2048" type="car" />
    <trip id="1051_0" depart="28442.00" from="305" to="349" type="car" />
    <trip id="1440_0" depart="28442.00" from="1883" to="475" type="car" />
    <trip id="382_0" depart="28447.00" from="1858" to="1630" type="car" />
    <trip id="369_0" depart="28450.00" from="913" to="1607" type="car" />
    <trip id="21_0" depart="28462.00" from="146" to="428" type="car" />
    <trip id="406_0" depart="28463.00" from="1992" to="549" type="car" />
    <trip id="7_0" depart="28507.00" from="998" to="1378" type="car" />
    <trip id="909_0" depart="28520.00" from="718" to="843" type="car" />
    <trip id="1306_0" depart="28521.00" from="1487" to="1667" type="car" />
    <trip id="60_0" depart="28546.00" from="1611" to="2101" type="car" />
    <trip id="470_0" depart="28576.00" from="1736" to="1996" type="car" />
    <trip id="1130_0" depart="28577.00" from="1756" to="1632" type="car" />
    <trip id="1447_0" depart="28593.00" from="1214" to="1967" type="car" />
    <trip id="47_0" depart="28623.00" from="104" to="806" type="car" />
    <trip id="1448_0" depart="28636.00" from="1678" to="1730" type="car" />
    <trip id="996_0" depart="28638.00" from="2108" to="1055" type="car" />
    <trip id="492_0" depart="28649.00" from="643" to="1796" type="car" />
    <trip id="506_0" depart="28663.00" from="1709" to="1962" type="car" />
    <trip id="291_0" depart="28665.00" from="961" to="4" type="car" />
    <trip id="1138_0" depart="28692.00" from="1725" to="222" type="car" />
    <trip id="34_0" depart="28694.00" from="1750" to="619" type="car" />
    <trip id="1369_0" depart="28701.00" from="1672" to="930" type="car" />
    <trip id="220_0" depart="28729.00" from="202" to="28" type="car" />
    <trip id="315_0" depart="28740.00" from="2071" to="147" type="car" />
    <trip id="634_0" depart="28749.00" from="546" to="937" type="car" />
    <trip id="1293_0" depart="28762.00" from="1887" to="1657" type="car" />
    <trip id="723_0" depart="28763.00" from="2065" to="106" type="car" />
    <trip id="1078_0" depart="28772.00" from="867" to="1007" type="car" />
    <trip id="227_0" depart="28773.00" from="1289" to="191" type="car" />
    <trip id="196_0" depart="28774.00" from="1593" to="1027" type="car" />
    <trip id="1159_0" depart="28776.00" from="208" to="1080" type="car" />
    <trip id="867_0" depart="28787.00" from="1030" to="1992" type="car" />
    <trip id="1094_0" depart="28795.00" from="1842" to="2021" type="car" />
    <trip id="133_0" depart="28796.00" from="1617" to="1121" type="car" />
    <trip id="1334_0" depart="28828.00" from="254" to="1175" type="car" />
    <trip id="456_0" depart="28837.00" from="1103" to="1814" type="car" />
    <trip id="663_0" depart="28839.00" from="1755" to="1777" type="car" />
    <trip id="480_0" depart="28843.00" from="1606" to="266" type="car" />
    <trip id="535_0" depart="28845.00" from="1461" to="125" type="car" />
    <trip id="210_0" depart="28847.00" from="332" to="404" type="car" />
    <trip id="6_0" depart="28851.00" from="818" to="1364" type="car" />
    <trip id="275_0" depart="28861.00" from="1623" to="1793" type="car" />
    <trip id="244_0" depart="28869.00" from="1365" to="241" type="car" />
    <trip id="214_0" depart="28870.00" from="723" to="209" type="car" />
    <trip id="851_0" depart="28890.00" from="2043" to="564" type="car" />
    <trip id="102_0" depart="28905.00" from="863" to="1820" type="car" />
    <trip id="258_0" depart="28916.00" from="1744" to="2132" type="car" />
    <trip id="1027_0" depart="28919.00" from="1361" to="1363" type="car" />
    <trip id="1400_0" depart="28923.00" from="1986" to="2123" type="car" />
    <trip id="28_0" depart="28933.00" from="93" to="547" type="car" />
    <trip id="180_0" depart="28951.00" from="747" to="1070" type="car" />
    <trip id="221_0" depart="28954.00" from="1064" to="582" type="car" />
    <trip id="710_0" depart="28954.00" from="642" to="1986" type="car" />
    <trip id="428_0" depart="28965.00" from="1718" to="27" type="car" />
    <trip id="209_0" depart="28966.00" from="638" to="617" type="car" />
    <trip id="911_0" depart="28966.00" from="500" to="1473" type="car" />
    <trip id="464_0" depart="28968.00" from="1332" to="1119" type="car" />
    <trip id="1018_0" depart="28972.00" from="1517" to="1300" type="car" />
    <trip id="1454_0" depart="28972.00" from="1183" to="1095" type="car" />
    <trip id="833_0" depart="28981.00" from="808" to="703" type="car" />
    <trip id="968_0" depart="28984.00" from="1354" to="814" type="car" />
    <trip id="1164_0" depart="28987.00" from="34" to="738" type="car" />
    <trip id="963_0" depart="28997.00" from="1211" to="528" type="car" />
    <trip id="712_0" depart="29018.00" from="519" to="1680" type="car" />
    <trip id="415_0" depart="29024.00" from="14" to="1637" type="car" />
    <trip id="159_0" depart="29033.00" from="1113" to="1779" type="car" />
    <trip id="664_0" depart="29034.00" from="546" to="1345" type="car" />
    <trip id="379_0" depart="29057.00" from="644" to="1065" type="car" />
    <trip id="877_0" depart="29062.00" from="44" to="67" type="car" />
    <trip id="938_0" depart="29064.00" from="1485" to="1787" type="car" />
    <trip id="648_0" depart="29075.00" from="1750" to="1907" type="car" />
    <trip id="1268_0" depart="29076.00" from="2026" to="518" type="car" />
    <trip id="120_0" depart="29099.00" from="1847" to="416" type="car" />
    <trip id="513_0" depart="29099.00" from="1173" to="873" type="car" />
    <trip id="1312_0" depart="29100.00" from="590" to="1991" type="car" />
    <trip id="616_0" depart="29118.00" from="396" to="514" type="car" />
    <trip id="1330_0" depart="29125.00" from="1616" to="595" type="car" />
    <trip id="985_0" depart="29129.00" from="828" to="1154" type="car" />
    <trip id="1274_0" depart="29134.00" from="1762" to="1742" type="car" />
    <trip id="1443_0" depart="29140.00" from="683" to="1405" type="car" />
    <trip id="698_0" depart="29143.00" from="741" to="2055" type="car" />
    <trip id="959_0" depart="29152.00" from="1877" to="1144" type="car" />
    <trip id="655_0" depart="29170.00" from="612" to="1341" type="car" />
    <trip id="353_0" depart="29184.00" from="1169" to="1469" type="car" />
    <trip id="1309_0" depart="29200.00" from="2073" to="1631" type="car" />
    <trip id="848_0" depart="29200.00" from="244" to="643" type="car" />
    <trip id="907_0" depart="29213.00" from="2113" to="1524" type="car" />
    <trip id="889_0" depart="29229.00" from="2193" to="1405" type="car" />
    <trip id="262_0" depart="29230.00" from="1345" to="514" type="car" />
    <trip id="1421_0" depart="29241.00" from="765" to="1185" type="car" />
    <trip id="404_0" depart="29248.00" from="213" to="2067" type="car" />
    <trip id="328_0" depart="29252.00" from="118" to="362" type="car" />
    <trip id="197_0" depart="29263.00" from="1046" to="409" type="car" />
    <trip id="1403_0" depart="29284.00" from="303" to="796" type="car" />
    <trip id="1295_0" depart="29285.00" from="2063" to="618" type="car" />
    <trip id="1438_0" depart="29285.00" from="1860" to="1261" type="car" />
    <trip id="31_0" depart="29286.00" from="650" to="393" type="car" />
    <trip id="1168_0" depart="29310.00" from="1633" to="410" type="car" />
    <trip id="888_0" depart="29310.00" from="2035" to="694" type="car" />
    <trip id="1139_0" depart="29311.00" from="1611" to="890" type="car" />
    <trip id="1416_0" depart="29315.00" from="908" to="405" type="car" />
    <trip id="531_0" depart="29323.00" from="112" to="1677" type="car" />
    <trip id="521_0" depart="29329.00" from="1052" to="743" type="car" />
    <trip id="336_0" depart="29334.00" from="1944" to="1695" type="car" />
    <trip id="766_0" depart="29353.00" from="1121" to="160" type="car" />
    <trip id="1077_0" depart="29361.00" from="1512" to="640" type="car" />
    <trip id="1106_0" depart="29380.00" from="633" to="1985" type="car" />
    <trip id="741_0" depart="29397.00" from="918" to="874" type="car" />
    <trip id="737_0" depart="29410.00" from="347" to="1154" type="car" />
    <trip id="1000_0" depart="29421.00" from="1126" to="1672" type="car" />
    <trip id="294_0" depart="29426.00" from="1177" to="454" type="car" />
    <trip id="501_0" depart="29438.00" from="397" to="1442" type="car" />
    <trip id="552_0" depart="29438.00" from="1094" to="507" type="car" />
    <trip id="94_0" depart="29438.00" from="856" to="1352" type="car" />
    <trip id="281_0" depart="29446.00" from="1966" to="2011" type="car" />
    <trip id="855_0" depart="29453.00" from="990" to="1940" type="car" />
    <trip id="1103_0" depart="29463.00" from="1281" to="950" type="car" />
    <trip id="731_0" depart="29468.00" from="753" to="1751" type="car" />
    <trip id="1180_0" depart="29470.00" from="93" to="1384" type="car" />
    <trip id="53_0" depart="29472.00" from="1486" to="1882" type="car" />
    <trip id="380_0" depart="29477.00" from="1204" to="118" type="car" />
    <trip id="155_0" depart="29484.00" from="407" to="468" type="car" />
    <trip id="578_0" depart="29487.00" from="550" to="959" type="car" />
    <trip id="509_0" depart="29488.00" from="1217" to="859" type="car" />
    <trip id="1031_0" depart="29489.00" from="366" to="258" type="car" />
    <trip id="170_0" depart="29493.00" from="931" to="1154" type="car" />
    <trip id="1225_0" depart="29500.00" from="956" to="959" type="car" />
    <trip id="1161_0" depart="29514.00" from="1308" to="833" type="car" />
    <trip id="654_0" depart="29518.00" from="1265" to="1517" type="car" />
    <trip id="408_0" depart="29520.00" from="1711" to="2135" type="car" />
    <trip id="122_0" depart="29545.00" from="416" to="1923" type="car" />
    <trip id="365_0" depart="29592.00" from="1037" to="655" type="car" />
    <trip id="360_0" depart="29596.00" from="461" to="2092" type="car" />
    <trip id="1072_0" depart="29610.00" from="1838" to="1552" type="car" />
    <trip id="36_0" depart="29610.00" from="1798" to="1819" type="car" />
    <trip id="598_0" depart="29621.00" from="53" to="1196" type="car" />
    <trip id="1434_0" depart="29630.00" from="1273" to="1073" type="car" />
    <trip id="538_0" depart="29644.00" from="887" to="499" type="car" />
    <trip id="1461_0" depart="29649.00" from="1026" to="303" type="car" />
    <trip id="1101_0" depart="29657.00" from="28" to="1059" type="car" />
    <trip id="980_0" depart="29662.00" from="1324" to="1542" type="car" />
    <trip id="988_0" depart="29665.00" from="1084" to="351" type="car" />
    <trip id="918_0" depart="29668.00" from="1097" to="1115" type="car" />
    <trip id="303_0" depart="29701.00" from="575" to="281" type="car" />
    <trip id="374_0" depart="29704.00" from="1624" to="657" type="car" />
    <trip id="681_0" depart="29722.00" from="443" to="493" type="car" />
    <trip id="640_0" depart="29728.00" from="1307" to="343" type="car" />
    <trip id="371_0" depart="29739.00" from="1802" to="472" type="car" />
    <trip id="1228_0" depart="29742.00" from="684" to="1548" type="car" />
    <trip id="416_0" depart="29748.00" from="1173" to="190" type="car" />
    <trip id="1038_0" depart="29757.00" from="1920" to="987" type="car" />
    <trip id="499_0" depart="29781.00" from="1656" to="1044" type="car" />
    <trip id="187_0" depart="29792.00" from="1938" to="1413" type="car" />
    <trip id="1205_0" depart="29800.00" from="1731" to="40" type="car" />
    <trip id="613_0" depart="29831.00" from="561" to="1368" type="car" />
    <trip id="915_0" depart="29834.00" from="293" to="1683" type="car" />
    <trip id="1210_0" depart="29838.00" from="1252" to="1595" type="car" />
    <trip id="1151_0" depart="29856.00" from="1701" to="295" type="car" />
    <trip id="774_0" depart="29870.00" from="680" to="1765" type="car" />
    <trip id="1319_0" depart="29881.00" from="2125" to="2137" type="car" />
    <trip id="206_0" depart="29889.00" from="581" to="1117" type="car" />
    <trip id="646_0" depart="29894.00" from="1575" to="644" type="car" />
    <trip id="302_0" depart="29904.00" from="1885" to="163" type="car" />
    <trip id="430_0" depart="29905.00" from="1513" to="1550" type="car" />
    <trip id="298_0" depart="29910.00" from="1702" to="807" type="car" />
    <trip id="1143_0" depart="29922.00" from="1094" to="545" type="car" />
    <trip id="5_0" depart="29944.00" from="1989" to="1489" type="car" />
    <trip id="370_0" depart="29957.00" from="61" to="1765" type="car" />
    <trip id="1281_0" depart="29958.00" from="1813" to="1765" type="car" />
    <trip id="569_0" depart="29958.00" from="80" to="2144" type="car" />
    <trip id="1204_0" depart="29959.00" from="815" to="446" type="car" />