<?xml version="1.0" encoding="UTF-8"?>
<!DOCTYPE facilities SYSTEM "http://www.matsim.org/files/dtd/facilities_v1.dtd">

<facilities>
	<facility id="10013690617" x="10.9133051" y="44.6578618">
		<activity type="restaurant">
		</activity>
	</facility>
	<facility id="10053977784" x="10.9198413" y="44.6594865">
		<activity type="bank">
		</activity>
	</facility>
	<facility id="10053977787" x="10.9211144" y="44.6585557">
		<activity type="charging_station">
		</activity>
	</facility>
	<facility id="10168481824" x="10.9203479" y="44.658775">
		<activity type="restaurant">
		</activity>
	</facility>
	<facility id="10232512330" x="10.916018" y="44.660677">
		<activity type="restaurant">
		</activity>
	</facility>
	<facility id="10289044201" x="10.9339471" y="44.6555263">
		<activity type="cafe">
		</activity>
	</facility>
	<facility id="10289047254" x="10.9310689" y="44.658225">
		<activity type="bicycle_parking">
		</activity>
	</facility>
	<facility id="1098019481" x="10.9210203" y="44.6590319">
		<activity type="car interaction">			<capacity value="9.0" />

		</activity>
		<attributes>
			<attribute name="links" class="java.lang.String">1098019480;1098019481</attribute>
		</attributes>
	</facility>
	<facility id="1098019483" x="10.9203444" y="44.6592078">
		<activity type="car interaction">			<capacity value="24.0" />

		</activity>
		<attributes>
			<attribute name="links" class="java.lang.String">1098019482;1098019483</attribute>
		</attributes>
	</facility>
	<facility id="1130621572" x="10.9148891" y="44.6629293">
		<activity type="car interaction">			<capacity value="100.0" />

		</activity>
		<attributes>
			<attribute name="links" class="java.lang.String">1130621572;1132491510;1132491511;1132491512</attribute>
		</attributes>
	</facility>
	<facility id="135254037" x="10.9210299" y="44.6587651">
		<activity type="car interaction">			<capacity value="107.0" />

		</activity>
		<attributes>
			<attribute name="links" class="java.lang.String">135254037;193166693;193166698;569653531;569653537;656506228</attribute>
		</attributes>
	</facility>
	<facility id="167121828" x="10.9353627" y="44.6550744">
		<activity type="bank">
		</activity>
	</facility>
	<facility id="167134796" x="10.9114691" y="44.6596442">
		<activity type="place_of_worship">
		</activity>
	</facility>
	<facility id="167165107" x="10.9278103" y="44.6634475">
		<activity type="childcare">
		</activity>
	</facility>
	<facility id="167165166" x="10.9194967" y="44.6619614">
		<activity type="place_of_worship">
		</activity>
	</facility>
	<facility id="167165212" x="10.9189227" y="44.6574651">
		<activity type="restaurant">
		</activity>
	</facility>
	<facility id="167165317" x="10.9182738" y="44.6549657">
		<activity type="place_of_worship">
		</activity>
	</facility>
	<facility id="167165713" x="10.9296011" y="44.6673839">
		<activity type="police">
		</activity>
	</facility>
	<facility id="167165889" x="10.9171463" y="44.6553088">
		<activity type="nightclub">
		</activity>
	</facility>
	<facility id="167165937" x="10.9268375" y="44.6624018">
		<activity type="place_of_worship">
		</activity>
	</facility>
	<facility id="167166157" x="10.931116" y="44.6736566">
		<activity type="place_of_worship">
		</activity>
	</facility>
	<facility id="167166197" x="10.9175612" y="44.6554685">
		<activity type="community_centre">
		</activity>
	</facility>
	<facility id="167166439" x="10.9202197" y="44.6568815">
		<activity type="cafe">
		</activity>
	</facility>
	<facility id="167166669" x="10.9205777" y="44.6599671">
		<activity type="restaurant">
		</activity>
	</facility>
	<facility id="167278394" x="10.9268098" y="44.656601">
		<activity type="police">
		</activity>
	</facility>
	<facility id="167278783" x="10.9379" y="44.6560176">
		<activity type="place_of_worship">
		</activity>
	</facility>
	<facility id="167278988" x="10.9399932" y="44.6597645">
		<activity type="restaurant">
		</activity>
	</facility>
	<facility id="167305592" x="10.920536" y="44.6589931">
		<activity type="cinema">
		</activity>
	</facility>
	<facility id="167305969" x="10.9382234" y="44.6679776">
		<activity type="fuel">
		</activity>
	</facility>
	<facility id="1755033773" x="10.9343372" y="44.655332">
		<activity type="bicycle_parking">
		</activity>
	</facility>
	<facility id="1785268255" x="10.9358049" y="44.654884">
		<activity type="restaurant">
		</activity>
	</facility>
	<facility id="1787134677" x="10.9199172" y="44.6594813">
		<activity type="atm">
		</activity>
	</facility>
	<facility id="193022075" x="10.9214857" y="44.6670419">
		<activity type="car_wash">
		</activity>
	</facility>
	<facility id="193022091" x="10.9214426" y="44.6667709">
		<activity type="fuel">
		</activity>
	</facility>
	<facility id="193022092" x="10.920819" y="44.6696162">
		<activity type="prison">
		</activity>
	</facility>
	<facility id="193166662" x="10.9103875" y="44.6591528">
		<activity type="car interaction">			<capacity value="78.0" />

		</activity>
		<attributes>
			<attribute name="links" class="java.lang.String">193166662;193166687;193166700;193166703</attribute>
		</attributes>
	</facility>
	<facility id="193166704" x="10.9196616" y="44.6574311">
		<activity type="car interaction">			<capacity value="246.0" />

		</activity>
		<attributes>
			<attribute name="links" class="java.lang.String">27643363;27643364;193166680;193166683;193166689;193166696;193166699;193166701;193166704;209558653;436301815;436301818;436301820;567477648;569647994;569651232;569653531;656506228</attribute>
		</attributes>
	</facility>
	<facility id="193166705" x="10.9200458" y="44.6577716">
		<activity type="car interaction">			<capacity value="10.0" />

		</activity>
		<attributes>
			<attribute name="links" class="java.lang.String">193166705</attribute>
		</attributes>
	</facility>
	<facility id="193166706" x="10.9191004" y="44.6585941">
		<activity type="car interaction">			<capacity value="100.0" />

		</activity>
		<attributes>
			<attribute name="links" class="java.lang.String">32067183;193166690;193166697;193166706;408398358;569648453;569648718;569650583;569650585;656506228</attribute>
		</attributes>
	</facility>
	<facility id="193166707" x="10.9212078" y="44.6579966">
		<activity type="car interaction">			<capacity value="21.0" />

		</activity>
		<attributes>
			<attribute name="links" class="java.lang.String">193166707</attribute>
		</attributes>
	</facility>
	<facility id="193166708" x="10.9197825" y="44.6596844">
		<activity type="car interaction">			<capacity value="17.0" />

		</activity>
		<attributes>
			<attribute name="links" class="java.lang.String">32067231;193166708</attribute>
		</attributes>
	</facility>
	<facility id="193672368" x="10.9481917" y="44.6556869">
		<activity type="car interaction">			<capacity value="20.0" />

		</activity>
		<attributes>
			<attribute name="links" class="java.lang.String">167132024;193672363;193672368</attribute>
		</attributes>
	</facility>
	<facility id="193672369" x="10.948902" y="44.6558899">
		<activity type="car interaction">			<capacity value="45.0" />

		</activity>
		<attributes>
			<attribute name="links" class="java.lang.String">33787873;193672345;193672346;193672357;193672369;1031019666</attribute>
		</attributes>
	</facility>
	<facility id="193672373" x="10.9473415" y="44.6573183">
		<activity type="car interaction">			<capacity value="19.0" />

		</activity>
		<attributes>
			<attribute name="links" class="java.lang.String">193672350;193672353;193672354;193672373</attribute>
		</attributes>
	</facility>
	<facility id="193672377" x="10.9485832" y="44.6578526">
		<activity type="car interaction">			<capacity value="36.0" />

		</activity>
		<attributes>
			<attribute name="links" class="java.lang.String">32056861;193672377</attribute>
		</attributes>
	</facility>
	<facility id="193672379" x="10.948351" y="44.6573203">
		<activity type="car interaction">			<capacity value="33.0" />

		</activity>
		<attributes>
			<attribute name="links" class="java.lang.String">32056860;193672379</attribute>
		</attributes>
	</facility>
	<facility id="193672380" x="10.9475955" y="44.658006">
		<activity type="car interaction">			<capacity value="13.0" />

		</activity>
		<attributes>
			<attribute name="links" class="java.lang.String">193672380</attribute>
		</attributes>
	</facility>
	<facility id="193672381" x="10.9404932" y="44.6557125">
		<activity type="car interaction">			<capacity value="34.0" />

		</activity>
		<attributes>
			<attribute name="links" class="java.lang.String">32049284;32049422;193672344;193672347;193672362;193672381;490523256</attribute>
		</attributes>
	</facility>
	<facility id="193672382" x="10.9434154" y="44.6544569">
		<activity type="car interaction">			<capacity value="10.0" />

		</activity>
		<attributes>
			<attribute name="links" class="java.lang.String">33787639;193672382</attribute>
		</attributes>
	</facility>
	<facility id="193672384" x="10.94775" y="44.6593847">
		<activity type="car interaction">			<capacity value="17.0" />

		</activity>
		<attributes>
			<attribute name="links" class="java.lang.String">193672378;193672384</attribute>
		</attributes>
	</facility>
	<facility id="193672385" x="10.9463353" y="44.6568204">
		<activity type="car interaction">			<capacity value="41.0" />

		</activity>
		<attributes>
			<attribute name="links" class="java.lang.String">33787714;130070478;193672385</attribute>
		</attributes>
	</facility>
	<facility id="193672387" x="10.9479695" y="44.6563931">
		<activity type="car interaction">			<capacity value="31.0" />

		</activity>
		<attributes>
			<attribute name="links" class="java.lang.String">193672360;193672387</attribute>
		</attributes>
	</facility>
	<facility id="193672389" x="10.9499021" y="44.6564672">
		<activity type="car interaction">			<capacity value="43.0" />

		</activity>
		<attributes>
			<attribute name="links" class="java.lang.String">32056851;33787916;33787917;193672389;454086617</attribute>
		</attributes>
	</facility>
	<facility id="2013474816" x="10.9293872" y="44.655704">
		<activity type="bicycle_rental">
		</activity>
	</facility>
	<facility id="2013581288" x="10.9190707" y="44.67086">
		<activity type="bicycle_rental">
		</activity>
	</facility>
	<facility id="2013581301" x="10.914963" y="44.6552231">
		<activity type="bicycle_rental">
		</activity>
	</facility>
	<facility id="2019953924" x="10.915863" y="44.6562152">
		<activity type="bicycle_rental">
		</activity>
	</facility>
	<facility id="2019953925" x="10.9169827" y="44.6566441">
		<activity type="bicycle_rental">
		</activity>
	</facility>
	<facility id="2090827902" x="10.9491026" y="44.6559896">
		<activity type="cafe">
		</activity>
	</facility>
	<facility id="219670990" x="10.938286" y="44.6692304">
		<activity type="car interaction">			<capacity value="20.0" />

		</activity>
		<attributes>
			<attribute name="links" class="java.lang.String">219670990</attribute>
		</attributes>
	</facility>
	<facility id="228257833" x="10.9465001" y="44.6546107">
		<activity type="fuel">
		</activity>
	</facility>
	<facility id="2288109290" x="10.9370108" y="44.6658295">
		<activity type="cafe">
		</activity>
	</facility>
	<facility id="229111943" x="10.908952" y="44.654234">
		<activity type="fuel">
		</activity>
	</facility>
	<facility id="2401540732" x="10.9184088" y="44.6583503">
		<activity type="charging_station">
		</activity>
	</facility>
	<facility id="2401540733" x="10.9298882" y="44.6563763">
		<activity type="charging_station">
		</activity>
	</facility>
	<facility id="28093311" x="10.9154925" y="44.6556257">
		<activity type="car interaction">			<capacity value="10.0" />

		</activity>
		<attributes>
			<attribute name="links" class="java.lang.String">28093309;28093311</attribute>
		</attributes>
	</facility>
	<facility id="28093312" x="10.9148642" y="44.6549244">
		<activity type="car interaction">			<capacity value="53.0" />

		</activity>
		<attributes>
			<attribute name="links" class="java.lang.String">28093304;28093306;28093307;28093308;28093310;28093312;167165368</attribute>
		</attributes>
	</facility>
	<facility id="28130734" x="10.9213397" y="44.6534977">
		<activity type="car interaction">			<capacity value="363.0" />

		</activity>
		<attributes>
			<attribute name="links" class="java.lang.String">28130721;28130722;28130731;28130732;28130733;28130734;487463552</attribute>
		</attributes>
	</facility>
	<facility id="289614600" x="10.9348836" y="44.6758744">
		<activity type="car interaction">			<capacity value="22.0" />

		</activity>
		<attributes>
			<attribute name="links" class="java.lang.String">289614588;289614600</attribute>
		</attributes>
	</facility>
	<facility id="306563388" x="10.9348712" y="44.655023">
		<activity type="car interaction">			<capacity value="14.0" />

		</activity>
		<attributes>
			<attribute name="links" class="java.lang.String">306563388;622683998</attribute>
		</attributes>
	</facility>
	<facility id="3199631489" x="10.9206548" y="44.6585532">
		<activity type="restaurant">
		</activity>
	</facility>
	<facility id="3199631491" x="10.9206432" y="44.6584505">
		<activity type="restaurant">
		</activity>
	</facility>
	<facility id="32049496" x="10.9223258" y="44.6563269">
		<activity type="car interaction">			<capacity value="100.0" />

		</activity>
		<attributes>
			<attribute name="links" class="java.lang.String">32049496;193118817</attribute>
		</attributes>
	</facility>
	<facility id="321892061" x="10.9300321" y="44.6540862">
		<activity type="taxi">
		</activity>
	</facility>
	<facility id="32875046" x="10.9286414" y="44.6559109">
		<activity type="car interaction">			<capacity value="66.0" />

		</activity>
		<attributes>
			<attribute name="links" class="java.lang.String">32875046;32875134;190655401;190655417;365182715;397924980;690163981;690163983;690163986;691042241;691042488</attribute>
		</attributes>
	</facility>
	<facility id="334684460" x="10.9124277" y="44.6911123">
		<activity type="car interaction">			<capacity value="43.0" />

		</activity>
		<attributes>
			<attribute name="links" class="java.lang.String">37803003;209559137;334684460;334684466;582156684</attribute>
		</attributes>
	</facility>
	<facility id="3410716173" x="10.9323724" y="44.6574404">
		<activity type="social_facility">
		</activity>
	</facility>
	<facility id="3410716174" x="10.9319821" y="44.6576235">
		<activity type="library">
		</activity>
	</facility>
	<facility id="35978070" x="10.9302788" y="44.6575675">
		<activity type="car interaction">			<capacity value="58.0" />

		</activity>
		<attributes>
			<attribute name="links" class="java.lang.String">35978058;35978060;35978064;35978065;35978068;35978069;35978070;193166684;209730256;473994205;976186501;976186502</attribute>
		</attributes>
	</facility>
	<facility id="35979711" x="10.9280483" y="44.6605206">
		<activity type="car interaction">			<capacity value="29.0" />

		</activity>
		<attributes>
			<attribute name="links" class="java.lang.String">35979709;35979710;35979711</attribute>
		</attributes>
	</facility>
	<facility id="36239004" x="10.9332807" y="44.6628058">
		<activity type="car interaction">			<capacity value="82.0" />

		</activity>
		<attributes>
			<attribute name="links" class="java.lang.String">32056762;36239001;36239002;36239003;36239004;209730243;664864412</attribute>
		</attributes>
	</facility>
	<facility id="375832987" x="10.9262202" y="44.6557808">
		<activity type="car interaction">			<capacity value="13.0" />

		</activity>
		<attributes>
			<attribute name="links" class="java.lang.String">375832987</attribute>
		</attributes>
	</facility>
	<facility id="375832988" x="10.9280354" y="44.6564794">
		<activity type="car interaction">			<capacity value="145.0" />

		</activity>
		<attributes>
			<attribute name="links" class="java.lang.String">193166669;375832988;375834630;479907206;479907207;690163995</attribute>
		</attributes>
	</facility>
	<facility id="375832989" x="10.9244493" y="44.6557362">
		<activity type="car interaction">			<capacity value="27.0" />

		</activity>
		<attributes>
			<attribute name="links" class="java.lang.String">375832989</attribute>
		</attributes>
	</facility>
	<facility id="382266299" x="10.9310743" y="44.6719278">
		<activity type="recycling">
		</activity>
	</facility>
	<facility id="3857713774" x="10.9337916" y="44.6552746">
		<activity type="post_office">
		</activity>
	</facility>
	<facility id="388872802" x="10.9176899" y="44.6569406">
		<activity type="car interaction">			<capacity value="29.0" />

		</activity>
		<attributes>
			<attribute name="links" class="java.lang.String">28093705;28093708;388872802;388872807;520994509</attribute>
		</attributes>
	</facility>
	<facility id="388872803" x="10.9166874" y="44.6564525">
		<activity type="car interaction">			<capacity value="93.0" />

		</activity>
		<attributes>
			<attribute name="links" class="java.lang.String">28093708;388872803;388872805;388872808;388872810;388872812;388872814</attribute>
		</attributes>
	</facility>
	<facility id="388872804" x="10.9180439" y="44.6557946">
		<activity type="car interaction">			<capacity value="77.0" />

		</activity>
		<attributes>
			<attribute name="links" class="java.lang.String">167165874;167166184;167166197;167166428;388872804;701910540;701910541;701910542;701910546;701910549;701910550;701910551;701910552</attribute>
		</attributes>
	</facility>
	<facility id="3949507251" x="10.9305987" y="44.6543214">
		<activity type="cafe">
		</activity>
	</facility>
	<facility id="3949507252" x="10.9307479" y="44.6543041">
		<activity type="fast_food">
		</activity>
	</facility>
	<facility id="4401150784" x="10.9198856" y="44.6545793">
		<activity type="school">
		</activity>
	</facility>
	<facility id="4401150785" x="10.9195959" y="44.6546957">
		<activity type="kindergarten">
		</activity>
	</facility>
	<facility id="4402920547" x="10.9314327" y="44.6579797">
		<activity type="school">
		</activity>
	</facility>
	<facility id="4402920548" x="10.9407024" y="44.6550271">
		<activity type="school">
		</activity>
	</facility>
	<facility id="4402920549" x="10.9403457" y="44.654491">
		<activity type="kindergarten">
		</activity>
	</facility>
	<facility id="442202525" x="10.9265782" y="44.6616985">
		<activity type="kindergarten">
		</activity>
	</facility>
	<facility id="442202527" x="10.9110563" y="44.6567811">
		<activity type="kindergarten">
		</activity>
	</facility>
	<facility id="442428386" x="10.929003" y="44.6606823">
		<activity type="kindergarten">
		</activity>
	</facility>
	<facility id="442437321" x="10.917165" y="44.6906741">
		<activity type="kindergarten">
		</activity>
	</facility>
	<facility id="442437323" x="10.9127607" y="44.6636534">
		<activity type="school">
		</activity>
	</facility>
	<facility id="442437324" x="10.9167452" y="44.6902093">
		<activity type="school">
		</activity>
	</facility>
	<facility id="442620520" x="10.9451203" y="44.659486">
		<activity type="school">
		</activity>
	</facility>
	<facility id="442967651" x="10.9251072" y="44.6655578">
		<activity type="car interaction">			<capacity value="45.0" />

		</activity>
		<attributes>
			<attribute name="links" class="java.lang.String">209730256;442967651;443080737;443080738;443080739;443080741;443080742;443080744</attribute>
		</attributes>
	</facility>
	<facility id="443091900" x="10.943935" y="44.6759068">
		<activity type="waste_transfer_station">
		</activity>
	</facility>
	<facility id="4456088924" x="10.9151803" y="44.6550034">
		<activity type="bank">
		</activity>
	</facility>
	<facility id="4474120267" x="10.929836" y="44.6544211">
		<activity type="toilets">
		</activity>
	</facility>
	<facility id="4509342900" x="10.9454382" y="44.6543051">
		<activity type="bank">
		</activity>
	</facility>
	<facility id="453771186" x="10.9152651" y="44.6647643">
		<activity type="car interaction">			<capacity value="116.0" />

		</activity>
		<attributes>
			<attribute name="links" class="java.lang.String">32934908;32934909;32934910;193118756;209558653;209559142;453771186</attribute>
		</attributes>
	</facility>
	<facility id="4692363715" x="10.9401905" y="44.657459">
		<activity type="toilets">
		</activity>
	</facility>
	<facility id="4692365473" x="10.9402009" y="44.6575661">
		<activity type="cafe">
		</activity>
	</facility>
	<facility id="4712419279" x="10.9213217" y="44.6600708">
		<activity type="restaurant">
		</activity>
	</facility>
	<facility id="4712419285" x="10.921899" y="44.6599207">
		<activity type="cafe">
		</activity>
	</facility>
	<facility id="4712420533" x="10.920193" y="44.6586584">
		<activity type="restaurant">
		</activity>
	</facility>
	<facility id="4712420571" x="10.9204703" y="44.6578886">
		<activity type="restaurant">
		</activity>
	</facility>
	<facility id="4712463072" x="10.9089114" y="44.6565521">
		<activity type="veterinary">
		</activity>
	</facility>
	<facility id="4712469802" x="10.9171878" y="44.6553465">
		<activity type="community_centre">
		</activity>
	</facility>
	<facility id="4712481508" x="10.9488882" y="44.6560836">
		<activity type="bank">
		</activity>
	</facility>
	<facility id="4712487801" x="10.9291493" y="44.6621262">
		<activity type="driving_school">
		</activity>
	</facility>
	<facility id="4712487804" x="10.9292886" y="44.6621418">
		<activity type="restaurant">
		</activity>
	</facility>
	<facility id="4712488587" x="10.937015" y="44.6597065">
		<activity type="cafe">
		</activity>
	</facility>
	<facility id="4712488731" x="10.934872" y="44.6574653">
		<activity type="restaurant">
		</activity>
	</facility>
	<facility id="4712504560" x="10.9366474" y="44.6575621">
		<activity type="restaurant">
		</activity>
	</facility>
	<facility id="4712504690" x="10.9365184" y="44.6569153">
		<activity type="restaurant">
		</activity>
	</facility>
	<facility id="4712504740" x="10.9352052" y="44.6561094">
		<activity type="pharmacy">
		</activity>
	</facility>
	<facility id="4712513720" x="10.9291786" y="44.6565445">
		<activity type="restaurant">
		</activity>
	</facility>
	<facility id="4712513750" x="10.9288819" y="44.6571076">
		<activity type="cafe">
		</activity>
	</facility>
	<facility id="4712531966" x="10.9327511" y="44.6570241">
		<activity type="bank">
		</activity>
	</facility>
	<facility id="4712535821" x="10.9360867" y="44.6556893">
		<activity type="cafe">
		</activity>
	</facility>
	<facility id="4712544542" x="10.9353436" y="44.6553419">
		<activity type="fast_food">
		</activity>
	</facility>
	<facility id="473994209" x="10.9340796" y="44.6562164">
		<activity type="fuel">
		</activity>
	</facility>
	<facility id="473994210" x="10.9346041" y="44.6558866">
		<activity type="car interaction">			<capacity value="56.0" />

		</activity>
		<attributes>
			<attribute name="links" class="java.lang.String">457970267;473994207;473994208;473994209;473994210</attribute>
		</attributes>
	</facility>
	<facility id="478155896" x="10.9187215" y="44.6561964">
		<activity type="car interaction">			<capacity value="67.0" />

		</activity>
		<attributes>
			<attribute name="links" class="java.lang.String">478155896;478155897;478155898;603490012;619450593;619450594</attribute>
		</attributes>
	</facility>
	<facility id="485556495" x="10.9193726" y="44.6711095">
		<activity type="car interaction">			<capacity value="43.0" />

		</activity>
		<attributes>
			<attribute name="links" class="java.lang.String">485556493;485556495</attribute>
		</attributes>
	</facility>
	<facility id="485556496" x="10.9185894" y="44.6695281">
		<activity type="car interaction">			<capacity value="109.0" />

		</activity>
		<attributes>
			<attribute name="links" class="java.lang.String">193022092;209730375;485556490;485556491;485556492;485556496</attribute>
		</attributes>
	</facility>
	<facility id="485556500" x="10.9210048" y="44.6670018">
		<activity type="car interaction">			<capacity value="38.0" />

		</activity>
		<attributes>
			<attribute name="links" class="java.lang.String">167165618;193022091;209559513;485556500;485556501;485556502;665113297;665113299;665113300;665113301</attribute>
		</attributes>
	</facility>
	<facility id="486372123" x="10.932085" y="44.6574179">
		<activity type="car interaction">			<capacity value="30.0" />

		</activity>
		<attributes>
			<attribute name="links" class="java.lang.String">323342967;323342969;323342970;486372123</attribute>
		</attributes>
	</facility>
	<facility id="486372137" x="10.9314417" y="44.6586391">
		<activity type="car interaction">			<capacity value="36.0" />

		</activity>
		<attributes>
			<attribute name="links" class="java.lang.String">442620518;486372125;486372137;964314867</attribute>
		</attributes>
	</facility>
	<facility id="4892372744" x="10.9201151" y="44.6585325">
		<activity type="restaurant">
		</activity>
	</facility>
	<facility id="520865693" x="10.9282906" y="44.6595166">
		<activity type="kindergarten">
		</activity>
	</facility>
	<facility id="5247608534" x="10.9276673" y="44.6655289">
		<activity type="restaurant">
		</activity>
	</facility>
	<facility id="573669273" x="10.915722" y="44.6594186">
		<activity type="car interaction">			<capacity value="279.0" />

		</activity>
		<attributes>
			<attribute name="links" class="java.lang.String">167165183;209558653;573669273;573669274;573669275;573669276;573669277;573669278;573669279;573669280</attribute>
		</attributes>
	</facility>
	<facility id="582062196" x="10.9170517" y="44.6904478">
		<activity type="car interaction">			<capacity value="19.0" />

		</activity>
		<attributes>
			<attribute name="links" class="java.lang.String">442437321;442437324;582062195;582062196;582062201</attribute>
		</attributes>
	</facility>
	<facility id="5920681921" x="10.9189095" y="44.6542568">
		<activity type="nightclub">
		</activity>
	</facility>
	<facility id="5938467347" x="10.9132746" y="44.654414">
		<activity type="restaurant">
		</activity>
	</facility>
	<facility id="6149768700" x="10.9198415" y="44.6590132">
		<activity type="parking_entrance">
		</activity>
	</facility>
	<facility id="619232328" x="10.9203524" y="44.6600203">
		<activity type="car interaction">			<capacity value="11.0" />

		</activity>
		<attributes>
			<attribute name="links" class="java.lang.String">619232327;619232328</attribute>
		</attributes>
	</facility>
	<facility id="6223218986" x="10.93005" y="44.6658697">
		<activity type="bench">
		</activity>
	</facility>
	<facility id="623946650" x="10.9427623" y="44.6540534">
		<activity type="car interaction">			<capacity value="52.0" />

		</activity>
		<attributes>
			<attribute name="links" class="java.lang.String">623944291;623946650;624045615;716703803</attribute>
		</attributes>
	</facility>
	<facility id="627174788" x="10.9184359" y="44.6545354">
		<activity type="car interaction">			<capacity value="19.0" />

		</activity>
		<attributes>
			<attribute name="links" class="java.lang.String">28130599;627174787;627174788</attribute>
		</attributes>
	</facility>
	<facility id="643397240" x="10.9350652" y="44.6544384">
		<activity type="car interaction">			<capacity value="250.0" />

		</activity>
		<attributes>
			<attribute name="links" class="java.lang.String">191742050;191742053;191742056;619244003;643397240</attribute>
		</attributes>
	</facility>
	<facility id="656506229" x="10.9198712" y="44.6584159">
		<activity type="car interaction">			<capacity value="76.0" />

		</activity>
		<attributes>
			<attribute name="links" class="java.lang.String">167305940;656506225;656506229;656506231;656506232;656506233;656506234;656506235</attribute>
		</attributes>
	</facility>
	<facility id="6591682214" x="10.9178983" y="44.6555752">
		<activity type="community_centre">
		</activity>
	</facility>
	<facility id="664864405" x="10.9347619" y="44.6657626">
		<activity type="car interaction">			<capacity value="32.0" />

		</activity>
		<attributes>
			<attribute name="links" class="java.lang.String">36239007;664864405;664864412</attribute>
		</attributes>
	</facility>
	<facility id="664864406" x="10.9335117" y="44.666378">
		<activity type="car interaction">			<capacity value="35.0" />

		</activity>
		<attributes>
			<attribute name="links" class="java.lang.String">36239007;664864406;664864412</attribute>
		</attributes>
	</facility>
	<facility id="665113299" x="10.9202553" y="44.6674652">
		<activity type="crematorium">
		</activity>
	</facility>
	<facility id="68695239" x="10.9159381" y="44.6897696">
		<activity type="car interaction">			<capacity value="35.0" />

		</activity>
		<attributes>
			<attribute name="links" class="java.lang.String">68695237;68695238;68695239;582062195</attribute>
		</attributes>
	</facility>
	<facility id="6914838299" x="10.929949" y="44.6583141">
		<activity type="pharmacy">
		</activity>
	</facility>
	<facility id="6914838302" x="10.930236" y="44.6584381">
		<activity type="restaurant">
		</activity>
	</facility>
	<facility id="7660464163" x="10.9290545" y="44.6652656">
		<activity type="fast_food">
		</activity>
	</facility>
	<facility id="7913219454" x="10.9293123" y="44.6560196">
		<activity type="charging_station">
		</activity>
	</facility>
	<facility id="7913219456" x="10.9485742" y="44.656047">
		<activity type="charging_station">
		</activity>
	</facility>
	<facility id="7913248919" x="10.9482486" y="44.6591296">
		<activity type="drinking_water">
		</activity>
	</facility>
	<facility id="7942258906" x="10.9485386" y="44.6552784">
		<activity type="restaurant">
		</activity>
	</facility>
	<facility id="850164185" x="10.9299229" y="44.6562084">
		<activity type="clinic">
		</activity>
	</facility>
	<facility id="8543787975" x="10.936647" y="44.6575281">
		<activity type="restaurant">
		</activity>
	</facility>
	<facility id="8579683014" x="10.9339225" y="44.6554995">
		<activity type="vending_machine">
		</activity>
	</facility>
	<facility id="8579710858" x="10.9238314" y="44.6612079">
		<activity type="vending_machine">
		</activity>
	</facility>
	<facility id="8638162046" x="10.9292857" y="44.6593167">
		<activity type="bar">
		</activity>
	</facility>
	<facility id="8638167218" x="10.9316655" y="44.6615883">