<?xml version="1.0" encoding="utf-8"?>
<!DOCTYPE population SYSTEM "http://www.matsim.org/files/dtd/population_v6.dtd">

<population>



<!-- ====================================================================== -->

	<person id="0">
		<attributes>
			<attribute name="drivelogic" class="java.lang.String" >org.matsim.contrib.smartcity.agent.CLASSDriverLogicBasic</attribute>
		</attributes>
		<plan selected="yes">
			<activity type="h" link="2125" max_dur="09:26:49" >
			</activity>
			<leg mode="car">
			</leg>
			<activity type="w" link="630" start_time="09:41:05" end_time="18:56:40" >
			</activity>
			<leg mode="car">
			</leg>
			<activity type="h" link="2125" >
			</activity>
		</plan>

	</person>

<!-- ====================================================================== -->

	<person id="1">
		<attributes>
			<attribute name="drivelogic" class="java.lang.String" >org.matsim.contrib.smartcity.agent.CLASSDriverLogicBasic</attribute>
		</attributes>
		<plan selected="yes">
			<activity type="h" link="3277" max_dur="08:37:41" >
			</activity>
			<leg mode="car">
			</leg>
			<activity type="w" link="953" start_time="08:42:57" end_time="17:47:40" >
			</activity>
			<leg mode="car">
			</leg>
			<activity type="h" link="3277" >
			</activity>
		</plan>

	</person>

<!-- ====================================================================== -->

	<person id="10">
		<attributes>
			<attribute name="drivelogic" class="java.lang.String" >org.matsim.contrib.smartcity.agent.CLASSDriverLogicBasic</attribute>
		</attributes>
		<plan selected="yes">
			<activity type="h" link="2906" max_dur="09:57:10" >
			</activity>
			<leg mode="car">
			</leg>
			<activity type="w" link="4408" start_time="10:07:48" end_time="17:49:38" >
			</activity>
			<leg mode="car">
			</leg>
			<activity type="h" link="2906" >
			</activity>
		</plan>

	</person>

<!-- ====================================================================== -->

	<person id="100">
		<attributes>
			<attribute name="drivelogic" class="java.lang.String" >org.matsim.contrib.smartcity.agent.CLASSDriverLogicBasic</attribute>
		</attributes>
		<plan selected="yes">
			<activity type="h" link="4257" max_dur="08:36:05" >
			</activity>
			<leg mode="car">
			</leg>
			<activity type="w" link="4617" start_time="08:45:02" end_time="16:53:40" >
			</activity>
			<leg mode="car">
			</leg>
			<activity type="h" link="4257" >
			</activity>
		</plan>

	</person>

<!-- ====================================================================== -->

	<person id="1000">
		<attributes>
			<attribute name="drivelogic" class="java.lang.String" >org.matsim.contrib.smartcity.agent.CLASSDriverLogicBasic</attribute>
		</attributes>
		<plan selected="yes">
			<activity type="h" link="2904" max_dur="09:49:05" >
			</activity>
			<leg mode="car">
			</leg>
			<activity type="w" link="2733" start_time="09:56:12" end_time="17:10:24" >
			</activity>
			<leg mode="car">
			</leg>
			<activity type="h" link="2904" >
			</activity>
		</plan>

	</person>

<!-- ====================================================================== -->

	<person id="1001">
		<attributes>
			<attribute name="drivelogic" class="java.lang.String" >org.matsim.contrib.smartcity.agent.CLASSDriverLogicBasic</attribute>
		</attributes>
		<plan selected="yes">
			<activity type="h" link="556" max_dur="08:25:18" >
			</activity>
			<leg mode="car">
			</leg>
			<activity type="w" link="884" start_time="08:31:25" end_time="19:08:55" >
			</activity>
			<leg mode="car">
			</leg>
			<activity type="h" link="556" >
			</activity>
		</plan>

	</person>

<!-- ====================================================================== -->

	<person id="1002">
		<attributes>
			<attribute name="drivelogic" class="java.lang.String" >org.matsim.contrib.smartcity.agent.CLASSDriverLogicBasic</attribute>
		</attributes>
		<plan selected="yes">
			<activity type="h" link="942" max_dur="08:35:58" >
			</activity>
			<leg mode="car">
			</leg>
			<activity type="w" link="3050" start_time="08:41:46" end_time="20:06:31" >
			</activity>
			<leg mode="car">
			</leg>
			<activity type="h" link="942" >
			</activity>
		</plan>

	</person>

<!-- ====================================================================== -->

	<person id="1003">
		<attributes>
			<attribute name="drivelogic" class="java.lang.String" >org.matsim.contrib.smartcity.agent.CLASSDriverLogicBasic</attribute>
		</attributes>
		<plan selected="yes">
			<activity type="h" link="3813" max_dur="09:09:55" >
			</activity>
			<leg mode="car">
			</leg>
			<activity type="w" link="1541" start_time="09:28:23" end_time="18:16:12" >
			</activity>
			<leg mode="car">
			</leg>
			<activity type="h" link="3813" >
			</activity>
		</plan>

	</person>

<!-- ====================================================================== -->

	<person id="1004">
		<attributes>
			<attribute name="drivelogic" class="java.lang.String" >org.matsim.contrib.smartcity.agent.CLASSDriverLogicBasic</attribute>
		</attributes>
		<plan selected="yes">
			<activity type="h" link="3939" max_dur="08:02:20" >
			</activity>
			<leg mode="car">
			</leg>
			<activity type="w" link="4586" start_time="08:14:33" end_time="20:06:13" >
			</activity>
			<leg mode="car">
			</leg>
			<activity type="h" link="3939" >
			</activity>
		</plan>

	</person>

<!-- ====================================================================== -->

	<person id="1005">
		<attributes>
			<attribute name="drivelogic" class="java.lang.String" >org.matsim.contrib.smartcity.agent.CLASSDriverLogicBasic</attribute>
		</attributes>
		<plan selected="yes">
			<activity type="h" link="4729" max_dur="08:44:29" >
			</activity>
			<leg mode="car">
			</leg>
			<activity type="w" link="2749" start_time="08:48:19" end_time="18:11:45" >
			</activity>
			<leg mode="car">
			</leg>
			<activity type="h" link="4729" >
			</activity>
		</plan>

	</person>

<!-- ====================================================================== -->

	<person id="1006">
		<attributes>
			<attribute name="drivelogic" class="java.lang.String" >org.matsim.contrib.smartcity.agent.CLASSDriverLogicBasic</attribute>
		</attributes>
		<plan selected="yes">
			<activity type="h" link="1990" max_dur="10:57:06" >
			</activity>
			<leg mode="car">
			</leg>
			<activity type="w" link="2884" start_time="11:07:24" end_time="17:46:08" >
			</activity>
			<leg mode="car">
			</leg>
			<activity type="h" link="1990" >
			</activity>
		</plan>

	</person>

<!-- ====================================================================== -->

	<person id="1007">
		<attributes>
			<attribute name="drivelogic" class="java.lang.String" >org.matsim.contrib.smartcity.agent.CLASSDriverLogicBasic</attribute>
		</attributes>
		<plan selected="yes">
			<activity type="h" link="3313" max_dur="07:42:54" >
			</activity>
			<leg mode="car">
			</leg>
			<activity type="w" link="257" start_time="07:57:49" end_time="19:43:25" >
			</activity>
			<leg mode="car">
			</leg>
			<activity type="h" link="3313" >
			</activity>
		</plan>

	</person>

<!-- ====================================================================== -->

	<person id="1008">
		<attributes>
			<attribute name="drivelogic" class="java.lang.String" >org.matsim.contrib.smartcity.agent.CLASSDriverLogicBasic</attribute>
		</attributes>
		<plan selected="yes">
			<activity type="h" link="1008" max_dur="08:57:48" >
			</activity>
			<leg mode="car">
			</leg>
			<activity type="w" link="2444" start_time="09:04:30" end_time="17:22:57" >
			</activity>
			<leg mode="car">
			</leg>
			<activity type="h" link="1008" >
			</activity>
		</plan>

	</person>

<!-- ====================================================================== -->

	<person id="1009">
		<attributes>
			<attribute name="drivelogic" class="java.lang.String" >org.matsim.contrib.smartcity.agent.CLASSDriverLogicBasic</attribute>
		</attributes>
		<plan selected="yes">
			<activity type="h" link="4676" max_dur="07:45:29" >
			</activity>
			<leg mode="car">
			</leg>
			<activity type="w" link="588" start_time="07:52:43" end_time="16:22:18" >
			</activity>
			<leg mode="car">
			</leg>
			<activity type="h" link="4676" >
			</activity>
		</plan>

	</person>

<!-- ====================================================================== -->

	<person id="101">
		<attributes>
			<attribute name="drivelogic" class="java.lang.String" >org.matsim.contrib.smartcity.agent.CLASSDriverLogicBasic</attribute>
		</attributes>
		<plan selected="yes">
			<activity type="h" link="2352" max_dur="09:12:17" >
			</activity>
			<leg mode="car">
			</leg>
			<activity type="w" link="466" start_time="09:16:50" end_time="17:46:42" >
			</activity>
			<leg mode="car">
			</leg>
			<activity type="h" link="2352" >
			</activity>
		</plan>

	</person>

<!-- ====================================================================== -->

	<person id="1010">
		<attributes>
			<attribute name="drivelogic" class="java.lang.String" >org.matsim.contrib.smartcity.agent.CLASSDriverLogicBasic</attribute>
		</attributes>
		<plan selected="yes">
			<activity type="h" link="2411" max_dur="09:26:18" >
			</activity>
			<leg mode="car">
			</leg>
			<activity type="w" link="4429" start_time="09:48:18" end_time="19:26:46" >
			</activity>
			<leg mode="car">
			</leg>
			<activity type="h" link="2411" >
			</activity>
		</plan>

	</person>

<!-- ====================================================================== -->

	<person id="1011">
		<attributes>
			<attribute name="drivelogic" class="java.lang.String" >org.matsim.contrib.smartcity.agent.CLASSDriverLogicBasic</attribute>
		</attributes>
		<plan selected="yes">
			<activity type="h" link="3587" max_dur="09:41:08" >
			</activity>
			<leg mode="car">
			</leg>
			<activity type="w" link="2142" start_time="09:55:59" end_time="18:39:13" >
			</activity>
			<leg mode="car">
			</leg>
			<activity type="h" link="3587" >
			</activity>
		</plan>

	</person>

<!-- ====================================================================== -->

	<person id="1012">
		<attributes>
			<attribute name="drivelogic" class="java.lang.String" >org.matsim.contrib.smartcity.agent.CLASSDriverLogicBasic</attribute>
		</attributes>
		<plan selected="yes">
			<activity type="h" link="198" max_dur="08:52:11" >
			</activity>
			<leg mode="car">
			</leg>
			<activity type="w" link="1203" start_time="08:55:46" end_time="17:01:46" >
			</activity>
			<leg mode="car">
			</leg>
			<activity type="h" link="198" >
			</activity>
		</plan>

	</person>

<!-- ====================================================================== -->

	<person id="1013">
		<attributes>
			<attribute name="drivelogic" class="java.lang.String" >org.matsim.contrib.smartcity.agent.CLASSDriverLogicBasic</attribute>
		</attributes>
		<plan selected="yes">
			<activity type="h" link="971" max_dur="09:06:43" >
			</activity>
			<leg mode="car">
			</leg>
			<activity type="w" link="2719" start_time="09:10:15" end_time="18:03:39" >
			</activity>
			<leg mode="car">
			</leg>
			<activity type="h" link="971" >
			</activity>
		</plan>

	</person>

<!-- ====================================================================== -->

	<person id="1014">
		<attributes>
			<attribute name="drivelogic" class="java.lang.String" >org.matsim.contrib.smartcity.agent.CLASSDriverLogicBasic</attribute>
		</attributes>
		<plan selected="yes">
			<activity type="h" link="3434" max_dur="08:31:19" >
			</activity>
			<leg mode="car">
			</leg>
			<activity type="w" link="1310" start_time="08:36:39" end_time="17:17:08" >
			</activity>
			<leg mode="car">
			</leg>
			<activity type="h" link="3434" >
			</activity>
		</plan>

	</person>

<!-- ====================================================================== -->

	<person id="1015">
		<attributes>
			<attribute name="drivelogic" class="java.lang.String" >org.matsim.contrib.smartcity.agent.CLASSDriverLogicBasic</attribute>
		</attributes>
		<plan selected="yes">
			<activity type="h" link="3470" max_dur="08:59:37" >
			</activity>
			<leg mode="car">
			</leg>
			<activity type="w" link="4183" start_time="09:10:00" end_time="18:22:40" >
			</activity>
			<leg mode="car">
			</leg>
			<activity type="h" link="3470" >
			</activity>
		</plan>

	</person>

<!-- ====================================================================== -->

	<person id="1016">
		<attributes>
			<attribute name="drivelogic" class="java.lang.String" >org.matsim.contrib.smartcity.agent.CLASSDriverLogicBasic</attribute>
		</attributes>
		<plan selected="yes">
			<activity type="h" link="1707" max_dur="10:21:15" >
			</activity>
			<leg mode="car">
			</leg>
			<activity type="w" link="1458" start_time="10:26:31" end_time="19:01:59" >
			</activity>
			<leg mode="car">
			</leg>
			<activity type="h" link="1707" >
			</activity>
		</plan>

	</person>

<!-- ====================================================================== -->

	<person id="1017">
		<attributes>
			<attribute name="drivelogic" class="java.lang.String" >org.matsim.contrib.smartcity.agent.CLASSDriverLogicBasic</attribute>
		</attributes>
		<plan selected="yes">
			<activity type="h" link="4348" max_dur="09:04:08" >
			</activity>
			<leg mode="car">
			</leg>
			<activity type="w" link="3035" start_time="09:10:54" end_time="18:25:01" >
			</activity>
			<leg mode="car">
			</leg>
			<activity type="h" link="4348" >
			</activity>
		</plan>

	</person>

<!-- ====================================================================== -->

	<person id="1018">
		<attributes>
			<attribute name="drivelogic" class="java.lang.String" >org.matsim.contrib.smartcity.agent.CLASSDriverLogicBasic</attribute>
		</attributes>
		<plan selected="yes">
			<activity type="h" link="2730" max_dur="09:23:03" >
			</activity>
			<leg mode="car">
			</leg>
			<activity type="w" link="808" start_time="09:27:09" end_time="17:33:25" >
			</activity>
			<leg mode="car">
			</leg>
			<activity type="h" link="2730" >
			</activity>
		</plan>

	</person>

<!-- ====================================================================== -->

	<person id="1019">
		<attributes>
			<attribute name="drivelogic" class="java.lang.String" >org.matsim.contrib.smartcity.agent.CLASSDriverLogicBasic</attribute>
		</attributes>
		<plan selected="yes">
			<activity type="h" link="856" max_dur="09:23:12" >
			</activity>
			<leg mode="car">
			</leg>
			<activity type="w" link="2369" start_time="09:25:12" end_time="18:30:11" >
			</activity>
			<leg mode="car">
			</leg>
			<activity type="h" link="856" >
			</activity>
		</plan>

	</person>

<!-- ====================================================================== -->

	<person id="102">
		<attributes>
			<attribute name="drivelogic" class="java.lang.String" >org.matsim.contrib.smartcity.agent.CLASSDriverLogicBasic</attribute>
		</attributes>
		<plan selected="yes">
			<activity type="h" link="691" max_dur="07:58:53" >
			</activity>
			<leg mode="car">
			</leg>
			<activity type="w" link="4672" start_time="08:01:55" end_time="18:50:45" >
			</activity>
			<leg mode="car">
			</leg>
			<activity type="h" link="691" >
			</activity>
		</plan>

	</person>

<!-- ====================================================================== -->

	<person id="1020">
		<attributes>
			<attribute name="drivelogic" class="java.lang.String" >org.matsim.contrib.smartcity.agent.CLASSDriverLogicBasic</attribute>
		</attributes>
		<plan selected="yes">
			<activity type="h" link="513" max_dur="09:08:40" >
			</activity>
			<leg mode="car">
			</leg>
			<activity type="w" link="445" start_time="09:15:32" end_time="17:14:59" >
			</activity>
			<leg mode="car">
			</leg>
			<activity type="h" link="513" >
			</activity>
		</plan>

	</person>

<!-- ====================================================================== -->

	<person id="1021">
		<attributes>
			<attribute name="drivelogic" class="java.lang.String" >org.matsim.contrib.smartcity.agent.CLASSDriverLogicBasic</attribute>
		</attributes>
		<plan selected="yes">
			<activity type="h" link="4298" max_dur="10:24:39" >
			</activity>
			<leg mode="car">
			</leg>
			<activity type="w" link="2251" start_time="10:41:36" end_time="19:01:50" >
			</activity>
			<leg mode="car">
			</leg>
			<activity type="h" link="4298" >
			</activity>
		</plan>

	</person>

<!-- ====================================================================== -->

	<person id="1022">
		<attributes>
			<attribute name="drivelogic" class="java.lang.String" >org.matsim.contrib.smartcity.agent.CLASSDriverLogicBasic</attribute>
		</attributes>
		<plan selected="yes">
			<activity type="h" link="3694" max_dur="07:58:14" >
			</activity>
			<leg mode="car">
			</leg>
			<activity type="w" link="4340" start_time="08:03:50" end_time="18:49:20" >
			</activity>
			<leg mode="car">
			</leg>
			<activity type="h" link="3694" >
			</activity>
		</plan>

	</person>

<!-- ====================================================================== -->

	<person id="1023">
		<attributes>
			<attribute name="drivelogic" class="java.lang.String" >org.matsim.contrib.smartcity.agent.CLASSDriverLogicBasic</attribute>
		</attributes>
		<plan selected="yes">
			<activity type="h" link="4217" max_dur="08:40:30" >
			</activity>
			<leg mode="car">
			</leg>
			<activity type="w" link="3953" start_time="08:47:20" end_time="16:26:53" >
			</activity>
			<leg mode="car">
			</leg>
			<activity type="h" link="4217" >
			</activity>
		</plan>

	</person>

<!-- ====================================================================== -->

	<person id="1024">
		<attributes>
			<attribute name="drivelogic" class="java.lang.String" >org.matsim.contrib.smartcity.agent.CLASSDriverLogicBasic</attribute>
		</attributes>
		<plan selected="yes">
			<activity type="h" link="668" max_dur="07:48:50" >
			</activity>
			<leg mode="car">
			</leg>
			<activity type="w" link="2403" start_time="07:56:34" end_time="18:38:13" >
			</activity>
			<leg mode="car">
			</leg>
			<activity type="h" link="668" >
			</activity>
		</plan>

	</person>

<!-- ====================================================================== -->

	<person id="1025">
		<attributes>
			<attribute name="drivelogic" class="java.lang.String" >org.matsim.contrib.smartcity.agent.CLASSDriverLogicBasic</attribute>
		</attributes>
		<plan selected="yes">
			<activity type="h" link="4491" max_dur="09:53:45" >
			</activity>
			<leg mode="car">
			</leg>
			<activity type="w" link="708" start_time="10:00:40" end_time="18:55:47" >
			</activity>
			<leg mode="car">
			</leg>
			<activity type="h" link="4491" >
			</activity>
		</plan>

	</person>

<!-- ====================================================================== -->

	<person id="1026">
		<attributes>
			<attribute name="drivelogic" class="java.lang.String" >org.matsim.contrib.smartcity.agent.CLASSDriverLogicBasic</attribute>
		</attributes>
		<plan selected="yes">
			<activity type="h" link="2821" max_dur="11:09:43" >
			</activity>
			<leg mode="car">
			</leg>
			<activity type="w" link="3603" start_time="11:24:14" end_time="16:18:34" >
			</activity>
			<leg mode="car">
			</leg>
			<activity type="h" link="2821" >
			</activity>
		</plan>

	</person>

<!-- ====================================================================== -->

	<person id="1027">
		<attributes>
			<attribute name="drivelogic" class="java.lang.String" >org.matsim.contrib.smartcity.agent.CLASSDriverLogicBasic</attribute>
		</attributes>
		<plan selected="yes">
			<activity type="h" link="3042" max_dur="09:38:01" >
			</activity>
			<leg mode="car">
			</leg>
			<activity type="w" link="1250" start_time="09:41:38" end_time="17:33:03" >
			</activity>
			<leg mode="car">
			</leg>
			<activity type="h" link="3042" >
			</activity>
		</plan>

	</person>

<!-- ====================================================================== -->

	<person id="1028">
		<attributes>
			<attribute name="drivelogic" class="java.lang.String" >org.matsim.contrib.smartcity.agent.CLASSDriverLogicBasic</attribute>
		</attributes>
		<plan selected="yes">
			<activity type="h" link="996" max_dur="08:54:35" >
			</activity>
			<leg mode="car">
			</leg>
			<activity type="w" link="4374" start_time="09:00:51" end_time="15:59:40" >
			</activity>
			<leg mode="car">
			</leg>
			<activity type="h" link="996" >
			</activity>
		</plan>

	</person>

<!-- ====================================================================== -->

	<person id="1029">
		<attributes>
			<attribute name="drivelogic" class="java.lang.String" >org.matsim.contrib.smartcity.agent.CLASSDriverLogicBasic</attribute>
		</attributes>
		<plan selected="yes">
			<activity type="h" link="33" max_dur="07:39:48" >
			</activity>
			<leg mode="car">
			</leg>
			<activity type="w" link="1306" start_time="07:41:13" end_time="18:25:50" >
			</activity>
			<leg mode="car">
			</leg>
			<activity type="h" link="33" >
			</activity>
		</plan>

	</person>

<!-- ====================================================================== -->

	<person id="103">
		<attributes>
			<attribute name="drivelogic" class="java.lang.String" >org.matsim.contrib.smartcity.agent.CLASSDriverLogicBasic</attribute>
		</attributes>
		<plan selected="yes">
			<activity type="h" link="208" max_dur="09:42:45" >
			</activity>
			<leg mode="car">
			</leg>
			<activity type="w" link="3835" start_time="09:45:49" end_time="16:34:57" >
			</activity>
			<leg mode="car">
			</leg>
			<activity type="h" link="208" >
			</activity>
		</plan>

	</person>

<!-- ====================================================================== -->

	<person id="1030">
		<attributes>
			<attribute name="drivelogic" class="java.lang.String" >org.matsim.contrib.smartcity.agent.CLASSDriverLogicBasic</attribute>
		</attributes>
		<plan selected="yes">
			<activity type="h" link="4557" max_dur="09:28:55" >
			</activity>
			<leg mode="car">
			</leg>
			<activity type="w" link="3139" start_time="09:36:45" end_time="17:55:44" >
			</activity>
			<leg mode="car">
			</leg>
			<activity type="h" link="4557" >
			</activity>
		</plan>

	</person>

<!-- ====================================================================== -->

	<person id="1031">
		<attributes>
			<attribute name="drivelogic" class="java.lang.String" >org.matsim.contrib.smartcity.agent.CLASSDriverLogicBasic</attribute>
		</attributes>
		<plan selected="yes">
			<activity type="h" link="4241" max_dur="08:03:27" >
			</activity>
			<leg mode="car">
			</leg>
			<activity type="w" link="1447" start_time="08:08:29" end_time="18:41:55" >
			</activity>
			<leg mode="car">
			</leg>
			<activity type="h" link="4241" >
			</activity>
		</plan>

	</person>

<!-- ====================================================================== -->

	<person id="1032">
		<attributes>
			<attribute name="drivelogic" class="java.lang.String" >org.matsim.contrib.smartcity.agent.CLASSDriverLogicBasic</attribute>
		</attributes>
		<plan selected="yes">
			<activity type="h" link="3137" max_dur="10:22:50" >
			</activity>
			<leg mode="car">
			</leg>
			<activity type="w" link="4894" start_time="10:26:00" end_time="21:21:23" >
			</activity>
			<leg mode="car">
			</leg>
			<activity type="h" link="3137" >
			</activity>
		</plan>

	</person>

<!-- ====================================================================== -->

	<person id="1033">
		<attributes>
			<attribute name="drivelogic" class="java.lang.String" >org.matsim.contrib.smartcity.agent.CLASSDriverLogicBasic</attribute>
		</attributes>
		<plan selected="yes">
			<activity type="h" link="2353" max_dur="07:39:06" >
			</activity>
			<leg mode="car">
			</leg>
			<activity type="w" link="408" start_time="07:48:53" end_time="18:01:51" >
			</activity>
			<leg mode="car">
			</leg>
			<activity type="h" link="2353" >
			</activity>
		</plan>

	</person>

<!-- ====================================================================== -->

	<person id="1034">
		<attributes>
			<attribute name="drivelogic" class="java.lang.String" >org.matsim.contrib.smartcity.agent.CLASSDriverLogicBasic</attribute>
		</attributes>
		<plan selected="yes">
			<activity type="h" link="1886" max_dur="10:50:31" >
			</activity>
			<leg mode="car">
			</leg>
			<activity type="w" link="963" start_time="10:56:06" end_time="17:09:18" >
			</activity>
			<leg mode="car">
			</leg>
			<activity type="h" link="1886" >
			</activity>
		</plan>

	</person>

<!-- ====================================================================== -->

	<person id="1035">
		<attributes>
			<attribute name="drivelogic" class="java.lang.String" >org.matsim.contrib.smartcity.agent.CLASSDriverLogicBasic</attribute>
		</attributes>
		<plan selected="yes">
			<activity type="h" link="2127" max_dur="09:12:49" >
			</activity>
			<leg mode="car">
			</leg>
			<activity type="w" link="838" start_time="09:26:19" end_time="18:21:50" >
			</activity>
			<leg mode="car">
			</leg>
			<activity type="h" link="2127" >
			</activity>
		</plan>

	</person>

<!-- ====================================================================== -->

	<person id="1036">
		<attributes>
			<attribute name="drivelogic" class="java.lang.String" >org.matsim.contrib.smartcity.agent.CLASSDriverLogicBasic</attribute>
		</attributes>
		<plan selected="yes">
			<activity type="h" link="1501" max_dur="09:57:16" >
			</activity>
			<leg mode="car">
			</leg>
			<activity type="w" link="2848" start_time="10:00:14" end_time="18:50:17" >
			</activity>
			<leg mode="car">
			</leg>
			<activity type="h" link="1501" >
			</activity>
		</plan>

	</person>

<!-- ====================================================================== -->

	<person id="1037">
		<attributes>
			<attribute name="drivelogic" class="java.lang.String" >org.matsim.contrib.smartcity.agent.CLASSDriverLogicBasic</attribute>
		</attributes>
		<plan selected="yes">
			<activity type="h" link="1131" max_dur="09:18:11" >
			</activity>
			<leg mode="car">
			</leg>
			<activity type="w" link="4473" start_time="09:27:31" end_time="18:34:40" >
			</activity>
			<leg mode="car">
			</leg>
			<activity type="h" link="1131" >
			</activity>
		</plan>

	</person>

<!-- ====================================================================== -->

	<person id="1038">
		<attributes>
			<attribute name="drivelogic" class="java.lang.String" >org.matsim.contrib.smartcity.agent.CLASSDriverLogicBasic</attribute>
		</attributes>
		<plan selected="yes">
			<activity type="h" link="4821" max_dur="07:58:32" >
			</activity>
			<leg mode="car">
			</leg>
			<activity type="w" link="888" start_time="08:04:32" end_time="17:40:50" >
			</activity>
			<leg mode="car">
			</leg>
			<activity type="h" link="4821" >
			</activity>
		</plan>

	</person>

<!-- ====================================================================== -->

	<person id="1039">
		<attributes>
			<attribute name="drivelogic" class="java.lang.String" >org.matsim.contrib.smartcity.agent.CLASSDriverLogicBasic</attribute>
		</attributes>
		<plan selected="yes">
			<activity type="h" link="3142" max_dur="08:03:18" >
			</activity>
			<leg mode="car">
			</leg>
			<activity type="w" link="3792" start_time="08:20:25" end_time="19:02:44" >
			</activity>
			<leg mode="car">
			</leg>
			<activity type="h" link="3142" >
			</activity>
		</plan>

	</person>

<!-- ====================================================================== -->

	<person id="104">
		<attributes>
			<attribute name="drivelogic" class="java.lang.String" >org.matsim.contrib.smartcity.agent.CLASSDriverLogicBasic</attribute>
		</attributes>
		<plan selected="yes">
			<activity type="h" link="1535" max_dur="08:15:20" >
			</activity>
			<leg mode="car">
			</leg>
			<activity type="w" link="362" start_time="08:26:27" end_time="18:42:06" >
			</activity>
			<leg mode="car">
			</leg>
			<activity type="h" link="1535" >
			</activity>
		</plan>

	</person>

<!-- ====================================================================== -->

	<person id="1040">
		<attributes>
			<attribute name="drivelogic" class="java.lang.String" >org.matsim.contrib.smartcity.agent.CLASSDriverLogicBasic</attribute>
		</attributes>
		<plan selected="yes">
			<activity type="h" link="1788" max_dur="09:24:44" >
			</activity>
			<leg mode="car">
			</leg>
			<activity type="w" link="4725" start_time="09:29:04" end_time="16:48:20" >
			</activity>
			<leg mode="car">
			</leg>
			<activity type="h" link="1788" >
			</activity>
		</plan>

	</person>

<!-- ====================================================================== -->

	<person id="1041">
		<attributes>
			<attribute name="drivelogic" class="java.lang.String" >org.matsim.contrib.smartcity.agent.CLASSDriverLogicBasic</attribute>
		</attributes>
		<plan selected="yes">
			<activity type="h" link="2101" max_dur="09:23:05" >
			</activity>
			<leg mode="car">
			</leg>
			<activity type="w" link="3028" start_time="09:37:03" end_time="18:18:19" >
			</activity>
			<leg mode="car">
			</leg>
			<activity type="h" link="2101" >
			</activity>
		</plan>

	</person>

<!-- ====================================================================== -->

	<person id="1042">
		<attributes>
			<attribute name="drivelogic" class="java.lang.String" >org.matsim.contrib.smartcity.agent.CLASSDriverLogicBasic</attribute>
		</attributes>
		<plan selected="yes">
			<activity type="h" link="2847" max_dur="08:23:19" >
			</activity>
			<leg mode="car">
			</leg>
			<activity type="w" link="1483" start_time="08:24:44" end_time="16:49:55" >
			</activity>
			<leg mode="car">
			</leg>
			<activity type="h" link="2847" >
			</activity>
		</plan>

	</person>

<!-- ====================================================================== -->

	<person id="1043">
		<attributes>
			<attribute name="drivelogic" class="java.lang.String" >org.matsim.contrib.smartcity.agent.CLASSDriverLogicBasic</attribute>
		</attributes>
		<plan selected="yes">