<?xml version="1.0" encoding="utf-8"?>
<!DOCTYPE population SYSTEM "http://www.matsim.org/files/dtd/population_v6.dtd">

<population>



<!-- ====================================================================== -->

	<person id="0">
		<attributes>
			<attribute name="drivelogic" class="java.lang.String" >org.matsim.contrib.smartcity.agent.CLASSDriverLogicBasic</attribute>
		</attributes>
		<plan selected="yes">
			<activity type="h" link="855" max_dur="08:55:08" >
			</activity>
			<leg mode="car">
			</leg>
			<activity type="w" link="568" start_time="08:59:40" end_time="19:04:21" >
			</activity>
			<leg mode="car">
			</leg>
			<activity type="h" link="855" >
			</activity>
		</plan>

	</person>

<!-- ====================================================================== -->

	<person id="1">
		<attributes>
			<attribute name="drivelogic" class="java.lang.String" >org.matsim.contrib.smartcity.agent.CLASSDriverLogicBasic</attribute>
		</attributes>
		<plan selected="yes">
			<activity type="h" link="1996" max_dur="09:01:40" >
			</activity>
			<leg mode="car">
			</leg>
			<activity type="w" link="232" start_time="09:02:46" end_time="18:32:41" >
			</activity>
			<leg mode="car">
			</leg>
			<activity type="h" link="1996" >
			</activity>
		</plan>

	</person>

<!-- ====================================================================== -->

	<person id="10">
		<attributes>
			<attribute name="drivelogic" class="java.lang.String" >org.matsim.contrib.smartcity.agent.CLASSDriverLogicBasic</attribute>
		</attributes>
		<plan selected="yes">
			<activity type="h" link="1015" max_dur="08:34:35" >
			</activity>
			<leg mode="car">
			</leg>
			<activity type="w" link="1325" start_time="08:35:31" end_time="18:32:36" >
			</activity>
			<leg mode="car">
			</leg>
			<activity type="h" link="1015" >
			</activity>
		</plan>

	</person>

<!-- ====================================================================== -->

	<person id="100">
		<attributes>
			<attribute name="drivelogic" class="java.lang.String" >org.matsim.contrib.smartcity.agent.CLASSDriverLogicBasic</attribute>
		</attributes>
		<plan selected="yes">
			<activity type="h" link="1306" max_dur="09:37:25" >
			</activity>
			<leg mode="car">
			</leg>
			<activity type="w" link="326" start_time="09:41:05" end_time="19:36:09" >
			</activity>
			<leg mode="car">
			</leg>
			<activity type="h" link="1306" >
			</activity>
		</plan>

	</person>

<!-- ====================================================================== -->

	<person id="1000">
		<attributes>
			<attribute name="drivelogic" class="java.lang.String" >org.matsim.contrib.smartcity.agent.CLASSDriverLogicBasic</attribute>
		</attributes>
		<plan selected="yes">
			<activity type="h" link="1126" max_dur="08:10:29" >
			</activity>
			<leg mode="car">
			</leg>
			<activity type="w" link="1672" start_time="08:13:46" end_time="18:20:36" >
			</activity>
			<leg mode="car">
			</leg>
			<activity type="h" link="1126" >
			</activity>
		</plan>

	</person>

<!-- ====================================================================== -->

	<person id="1001">
		<attributes>
			<attribute name="drivelogic" class="java.lang.String" >org.matsim.contrib.smartcity.agent.CLASSDriverLogicBasic</attribute>
		</attributes>
		<plan selected="yes">
			<activity type="h" link="1723" max_dur="08:42:16" >
			</activity>
			<leg mode="car">
			</leg>
			<activity type="w" link="60" start_time="08:51:54" end_time="16:44:21" >
			</activity>
			<leg mode="car">
			</leg>
			<activity type="h" link="1723" >
			</activity>
		</plan>

	</person>

<!-- ====================================================================== -->

	<person id="1002">
		<attributes>
			<attribute name="drivelogic" class="java.lang.String" >org.matsim.contrib.smartcity.agent.CLASSDriverLogicBasic</attribute>
		</attributes>
		<plan selected="yes">
			<activity type="h" link="210" max_dur="08:07:58" >
			</activity>
			<leg mode="car">
			</leg>
			<activity type="w" link="498" start_time="08:08:43" end_time="19:38:12" >
			</activity>
			<leg mode="car">
			</leg>
			<activity type="h" link="210" >
			</activity>
		</plan>

	</person>

<!-- ====================================================================== -->

	<person id="1003">
		<attributes>
			<attribute name="drivelogic" class="java.lang.String" >org.matsim.contrib.smartcity.agent.CLASSDriverLogicBasic</attribute>
		</attributes>
		<plan selected="yes">
			<activity type="h" link="2127" max_dur="09:15:34" >
			</activity>
			<leg mode="car">
			</leg>
			<activity type="w" link="39" start_time="09:18:42" end_time="18:43:46" >
			</activity>
			<leg mode="car">
			</leg>
			<activity type="h" link="2127" >
			</activity>
		</plan>

	</person>

<!-- ====================================================================== -->

	<person id="1004">
		<attributes>
			<attribute name="drivelogic" class="java.lang.String" >org.matsim.contrib.smartcity.agent.CLASSDriverLogicBasic</attribute>
		</attributes>
		<plan selected="yes">
			<activity type="h" link="1833" max_dur="08:16:53" >
			</activity>
			<leg mode="car">
			</leg>
			<activity type="w" link="366" start_time="08:22:00" end_time="18:09:51" >
			</activity>
			<leg mode="car">
			</leg>
			<activity type="h" link="1833" >
			</activity>
		</plan>

	</person>

<!-- ====================================================================== -->

	<person id="1005">
		<attributes>
			<attribute name="drivelogic" class="java.lang.String" >org.matsim.contrib.smartcity.agent.CLASSDriverLogicBasic</attribute>
		</attributes>
		<plan selected="yes">
			<activity type="h" link="727" max_dur="09:25:49" >
			</activity>
			<leg mode="car">
			</leg>
			<activity type="w" link="2011" start_time="09:26:43" end_time="17:29:44" >
			</activity>
			<leg mode="car">
			</leg>
			<activity type="h" link="727" >
			</activity>
		</plan>

	</person>

<!-- ====================================================================== -->

	<person id="1006">
		<attributes>
			<attribute name="drivelogic" class="java.lang.String" >org.matsim.contrib.smartcity.agent.CLASSDriverLogicBasic</attribute>
		</attributes>
		<plan selected="yes">
			<activity type="h" link="1088" max_dur="09:36:55" >
			</activity>
			<leg mode="car">
			</leg>
			<activity type="w" link="565" start_time="09:37:19" end_time="18:37:56" >
			</activity>
			<leg mode="car">
			</leg>
			<activity type="h" link="1088" >
			</activity>
		</plan>

	</person>

<!-- ====================================================================== -->

	<person id="1007">
		<attributes>
			<attribute name="drivelogic" class="java.lang.String" >org.matsim.contrib.smartcity.agent.CLASSDriverLogicBasic</attribute>
		</attributes>
		<plan selected="yes">
			<activity type="h" link="1876" max_dur="08:05:50" >
			</activity>
			<leg mode="car">
			</leg>
			<activity type="w" link="1098" start_time="08:11:18" end_time="17:49:54" >
			</activity>
			<leg mode="car">
			</leg>
			<activity type="h" link="1876" >
			</activity>
		</plan>

	</person>

<!-- ====================================================================== -->

	<person id="1008">
		<attributes>
			<attribute name="drivelogic" class="java.lang.String" >org.matsim.contrib.smartcity.agent.CLASSDriverLogicBasic</attribute>
		</attributes>
		<plan selected="yes">
			<activity type="h" link="88" max_dur="08:00:14" >
			</activity>
			<leg mode="car">
			</leg>
			<activity type="w" link="1761" start_time="08:08:03" end_time="20:00:44" >
			</activity>
			<leg mode="car">
			</leg>
			<activity type="h" link="88" >
			</activity>
		</plan>

	</person>

<!-- ====================================================================== -->

	<person id="1009">
		<attributes>
			<attribute name="drivelogic" class="java.lang.String" >org.matsim.contrib.smartcity.agent.CLASSDriverLogicBasic</attribute>
		</attributes>
		<plan selected="yes">
			<activity type="h" link="45" max_dur="07:53:27" >
			</activity>
			<leg mode="car">
			</leg>
			<activity type="w" link="2051" start_time="07:59:03" end_time="17:44:04" >
			</activity>
			<leg mode="car">
			</leg>
			<activity type="h" link="45" >
			</activity>
		</plan>

	</person>

<!-- ====================================================================== -->

	<person id="101">
		<attributes>
			<attribute name="drivelogic" class="java.lang.String" >org.matsim.contrib.smartcity.agent.CLASSDriverLogicBasic</attribute>
		</attributes>
		<plan selected="yes">
			<activity type="h" link="1771" max_dur="10:09:20" >
			</activity>
			<leg mode="car">
			</leg>
			<activity type="w" link="1852" start_time="10:13:52" end_time="16:56:58" >
			</activity>
			<leg mode="car">
			</leg>
			<activity type="h" link="1771" >
			</activity>
		</plan>

	</person>

<!-- ====================================================================== -->

	<person id="1010">
		<attributes>
			<attribute name="drivelogic" class="java.lang.String" >org.matsim.contrib.smartcity.agent.CLASSDriverLogicBasic</attribute>
		</attributes>
		<plan selected="yes">
			<activity type="h" link="468" max_dur="10:18:30" >
			</activity>
			<leg mode="car">
			</leg>
			<activity type="w" link="708" start_time="10:20:23" end_time="17:54:01" >
			</activity>
			<leg mode="car">
			</leg>
			<activity type="h" link="468" >
			</activity>
		</plan>

	</person>

<!-- ====================================================================== -->

	<person id="1011">
		<attributes>
			<attribute name="drivelogic" class="java.lang.String" >org.matsim.contrib.smartcity.agent.CLASSDriverLogicBasic</attribute>
		</attributes>
		<plan selected="yes">
			<activity type="h" link="2044" max_dur="09:39:56" >
			</activity>
			<leg mode="car">
			</leg>
			<activity type="w" link="1102" start_time="09:42:03" end_time="17:59:33" >
			</activity>
			<leg mode="car">
			</leg>
			<activity type="h" link="2044" >
			</activity>
		</plan>

	</person>

<!-- ====================================================================== -->

	<person id="1012">
		<attributes>
			<attribute name="drivelogic" class="java.lang.String" >org.matsim.contrib.smartcity.agent.CLASSDriverLogicBasic</attribute>
		</attributes>
		<plan selected="yes">
			<activity type="h" link="423" max_dur="09:55:47" >
			</activity>
			<leg mode="car">
			</leg>
			<activity type="w" link="918" start_time="10:00:00" end_time="17:49:27" >
			</activity>
			<leg mode="car">
			</leg>
			<activity type="h" link="423" >
			</activity>
		</plan>

	</person>

<!-- ====================================================================== -->

	<person id="1013">
		<attributes>
			<attribute name="drivelogic" class="java.lang.String" >org.matsim.contrib.smartcity.agent.CLASSDriverLogicBasic</attribute>
		</attributes>
		<plan selected="yes">
			<activity type="h" link="89" max_dur="08:05:01" >
			</activity>
			<leg mode="car">
			</leg>
			<activity type="w" link="519" start_time="08:08:25" end_time="16:40:54" >
			</activity>
			<leg mode="car">
			</leg>
			<activity type="h" link="89" >
			</activity>
		</plan>

	</person>

<!-- ====================================================================== -->

	<person id="1014">
		<attributes>
			<attribute name="drivelogic" class="java.lang.String" >org.matsim.contrib.smartcity.agent.CLASSDriverLogicBasic</attribute>
		</attributes>
		<plan selected="yes">
			<activity type="h" link="265" max_dur="07:38:00" >
			</activity>
			<leg mode="car">
			</leg>
			<activity type="w" link="238" start_time="07:42:47" end_time="19:03:54" >
			</activity>
			<leg mode="car">
			</leg>
			<activity type="h" link="265" >
			</activity>
		</plan>

	</person>

<!-- ====================================================================== -->

	<person id="1015">
		<attributes>
			<attribute name="drivelogic" class="java.lang.String" >org.matsim.contrib.smartcity.agent.CLASSDriverLogicBasic</attribute>
		</attributes>
		<plan selected="yes">
			<activity type="h" link="1792" max_dur="08:43:32" >
			</activity>
			<leg mode="car">
			</leg>
			<activity type="w" link="259" start_time="08:47:05" end_time="16:46:34" >
			</activity>
			<leg mode="car">
			</leg>
			<activity type="h" link="1792" >
			</activity>
		</plan>

	</person>

<!-- ====================================================================== -->

	<person id="1016">
		<attributes>
			<attribute name="drivelogic" class="java.lang.String" >org.matsim.contrib.smartcity.agent.CLASSDriverLogicBasic</attribute>
		</attributes>
		<plan selected="yes">
			<activity type="h" link="1531" max_dur="09:25:23" >
			</activity>
			<leg mode="car">
			</leg>
			<activity type="w" link="909" start_time="09:26:58" end_time="17:26:29" >
			</activity>
			<leg mode="car">
			</leg>
			<activity type="h" link="1531" >
			</activity>
		</plan>

	</person>

<!-- ====================================================================== -->

	<person id="1017">
		<attributes>
			<attribute name="drivelogic" class="java.lang.String" >org.matsim.contrib.smartcity.agent.CLASSDriverLogicBasic</attribute>
		</attributes>
		<plan selected="yes">
			<activity type="h" link="1650" max_dur="09:16:47" >
			</activity>
			<leg mode="car">
			</leg>
			<activity type="w" link="10" start_time="09:20:23" end_time="18:11:15" >
			</activity>
			<leg mode="car">
			</leg>
			<activity type="h" link="1650" >
			</activity>
		</plan>

	</person>

<!-- ====================================================================== -->

	<person id="1018">
		<attributes>
			<attribute name="drivelogic" class="java.lang.String" >org.matsim.contrib.smartcity.agent.CLASSDriverLogicBasic</attribute>
		</attributes>
		<plan selected="yes">
			<activity type="h" link="1517" max_dur="08:49:56" >
			</activity>
			<leg mode="car">
			</leg>
			<activity type="w" link="1300" start_time="08:53:49" end_time="17:18:06" >
			</activity>
			<leg mode="car">
			</leg>
			<activity type="h" link="1517" >
			</activity>
		</plan>

	</person>

<!-- ====================================================================== -->

	<person id="1019">
		<attributes>
			<attribute name="drivelogic" class="java.lang.String" >org.matsim.contrib.smartcity.agent.CLASSDriverLogicBasic</attribute>
		</attributes>
		<plan selected="yes">
			<activity type="h" link="1412" max_dur="08:43:58" >
			</activity>
			<leg mode="car">
			</leg>
			<activity type="w" link="1050" start_time="08:48:40" end_time="17:20:17" >
			</activity>
			<leg mode="car">
			</leg>
			<activity type="h" link="1412" >
			</activity>
		</plan>

	</person>

<!-- ====================================================================== -->

	<person id="102">
		<attributes>
			<attribute name="drivelogic" class="java.lang.String" >org.matsim.contrib.smartcity.agent.CLASSDriverLogicBasic</attribute>
		</attributes>
		<plan selected="yes">
			<activity type="h" link="863" max_dur="08:15:56" >
			</activity>
			<leg mode="car">
			</leg>
			<activity type="w" link="1820" start_time="08:21:37" end_time="17:16:19" >
			</activity>
			<leg mode="car">
			</leg>
			<activity type="h" link="863" >
			</activity>
		</plan>

	</person>

<!-- ====================================================================== -->

	<person id="1020">
		<attributes>
			<attribute name="drivelogic" class="java.lang.String" >org.matsim.contrib.smartcity.agent.CLASSDriverLogicBasic</attribute>
		</attributes>
		<plan selected="yes">
			<activity type="h" link="1994" max_dur="09:58:06" >
			</activity>
			<leg mode="car">
			</leg>
			<activity type="w" link="1762" start_time="10:06:29" end_time="19:01:23" >
			</activity>
			<leg mode="car">
			</leg>
			<activity type="h" link="1994" >
			</activity>
		</plan>

	</person>

<!-- ====================================================================== -->

	<person id="1021">
		<attributes>
			<attribute name="drivelogic" class="java.lang.String" >org.matsim.contrib.smartcity.agent.CLASSDriverLogicBasic</attribute>
		</attributes>
		<plan selected="yes">
			<activity type="h" link="103" max_dur="08:44:19" >
			</activity>
			<leg mode="car">
			</leg>
			<activity type="w" link="1274" start_time="08:45:20" end_time="17:53:19" >
			</activity>
			<leg mode="car">
			</leg>
			<activity type="h" link="103" >
			</activity>
		</plan>

	</person>

<!-- ====================================================================== -->

	<person id="1022">
		<attributes>
			<attribute name="drivelogic" class="java.lang.String" >org.matsim.contrib.smartcity.agent.CLASSDriverLogicBasic</attribute>
		</attributes>
		<plan selected="yes">
			<activity type="h" link="1847" max_dur="09:05:20" >
			</activity>
			<leg mode="car">
			</leg>
			<activity type="w" link="1769" start_time="09:10:56" end_time="18:38:34" >
			</activity>
			<leg mode="car">
			</leg>
			<activity type="h" link="1847" >
			</activity>
		</plan>

	</person>

<!-- ====================================================================== -->

	<person id="1023">
		<attributes>
			<attribute name="drivelogic" class="java.lang.String" >org.matsim.contrib.smartcity.agent.CLASSDriverLogicBasic</attribute>
		</attributes>
		<plan selected="yes">
			<activity type="h" link="1017" max_dur="11:01:58" >
			</activity>
			<leg mode="car">
			</leg>
			<activity type="w" link="1162" start_time="11:04:22" end_time="19:02:57" >
			</activity>
			<leg mode="car">
			</leg>
			<activity type="h" link="1017" >
			</activity>
		</plan>

	</person>

<!-- ====================================================================== -->

	<person id="1024">
		<attributes>
			<attribute name="drivelogic" class="java.lang.String" >org.matsim.contrib.smartcity.agent.CLASSDriverLogicBasic</attribute>
		</attributes>
		<plan selected="yes">
			<activity type="h" link="1052" max_dur="08:39:05" >
			</activity>
			<leg mode="car">
			</leg>
			<activity type="w" link="2053" start_time="08:42:13" end_time="20:52:57" >
			</activity>
			<leg mode="car">
			</leg>
			<activity type="h" link="1052" >
			</activity>
		</plan>

	</person>

<!-- ====================================================================== -->

	<person id="1025">
		<attributes>
			<attribute name="drivelogic" class="java.lang.String" >org.matsim.contrib.smartcity.agent.CLASSDriverLogicBasic</attribute>
		</attributes>
		<plan selected="yes">
			<activity type="h" link="1192" max_dur="08:16:26" >
			</activity>
			<leg mode="car">
			</leg>
			<activity type="w" link="1099" start_time="08:17:56" end_time="17:45:18" >
			</activity>
			<leg mode="car">
			</leg>
			<activity type="h" link="1192" >
			</activity>
		</plan>

	</person>

<!-- ====================================================================== -->

	<person id="1026">
		<attributes>
			<attribute name="drivelogic" class="java.lang.String" >org.matsim.contrib.smartcity.agent.CLASSDriverLogicBasic</attribute>
		</attributes>
		<plan selected="yes">
			<activity type="h" link="1694" max_dur="09:16:20" >
			</activity>
			<leg mode="car">
			</leg>
			<activity type="w" link="1622" start_time="09:18:03" end_time="17:42:09" >
			</activity>
			<leg mode="car">
			</leg>
			<activity type="h" link="1694" >
			</activity>
		</plan>

	</person>

<!-- ====================================================================== -->

	<person id="1027">
		<attributes>
			<attribute name="drivelogic" class="java.lang.String" >org.matsim.contrib.smartcity.agent.CLASSDriverLogicBasic</attribute>
		</attributes>
		<plan selected="yes">
			<activity type="h" link="1361" max_dur="08:11:50" >
			</activity>
			<leg mode="car">
			</leg>
			<activity type="w" link="1363" start_time="08:11:51" end_time="18:36:58" >
			</activity>
			<leg mode="car">
			</leg>
			<activity type="h" link="1361" >
			</activity>
		</plan>

	</person>

<!-- ====================================================================== -->

	<person id="1028">
		<attributes>
			<attribute name="drivelogic" class="java.lang.String" >org.matsim.contrib.smartcity.agent.CLASSDriverLogicBasic</attribute>
		</attributes>
		<plan selected="yes">
			<activity type="h" link="434" max_dur="08:47:15" >
			</activity>
			<leg mode="car">
			</leg>
			<activity type="w" link="1464" start_time="08:49:45" end_time="18:13:59" >
			</activity>
			<leg mode="car">
			</leg>
			<activity type="h" link="434" >
			</activity>
		</plan>

	</person>

<!-- ====================================================================== -->

	<person id="1029">
		<attributes>
			<attribute name="drivelogic" class="java.lang.String" >org.matsim.contrib.smartcity.agent.CLASSDriverLogicBasic</attribute>
		</attributes>
		<plan selected="yes">
			<activity type="h" link="1207" max_dur="11:07:24" >
			</activity>
			<leg mode="car">
			</leg>
			<activity type="w" link="1775" start_time="11:11:21" end_time="18:32:13" >
			</activity>
			<leg mode="car">
			</leg>
			<activity type="h" link="1207" >
			</activity>
		</plan>

	</person>

<!-- ====================================================================== -->

	<person id="103">
		<attributes>
			<attribute name="drivelogic" class="java.lang.String" >org.matsim.contrib.smartcity.agent.CLASSDriverLogicBasic</attribute>
		</attributes>
		<plan selected="yes">
			<activity type="h" link="748" max_dur="08:48:33" >
			</activity>
			<leg mode="car">
			</leg>
			<activity type="w" link="1681" start_time="08:51:19" end_time="18:23:27" >
			</activity>
			<leg mode="car">
			</leg>
			<activity type="h" link="748" >
			</activity>
		</plan>

	</person>

<!-- ====================================================================== -->

	<person id="1030">
		<attributes>
			<attribute name="drivelogic" class="java.lang.String" >org.matsim.contrib.smartcity.agent.CLASSDriverLogicBasic</attribute>
		</attributes>
		<plan selected="yes">
			<activity type="h" link="1701" max_dur="09:50:02" >
			</activity>
			<leg mode="car">
			</leg>
			<activity type="w" link="757" start_time="09:58:21" end_time="17:43:05" >
			</activity>
			<leg mode="car">
			</leg>
			<activity type="h" link="1701" >
			</activity>
		</plan>

	</person>

<!-- ====================================================================== -->

	<person id="1031">
		<attributes>
			<attribute name="drivelogic" class="java.lang.String" >org.matsim.contrib.smartcity.agent.CLASSDriverLogicBasic</attribute>
		</attributes>
		<plan selected="yes">
			<activity type="h" link="366" max_dur="09:18:29" >
			</activity>
			<leg mode="car">
			</leg>
			<activity type="w" link="258" start_time="09:22:56" end_time="18:12:35" >
			</activity>
			<leg mode="car">
			</leg>
			<activity type="h" link="366" >
			</activity>
		</plan>

	</person>

<!-- ====================================================================== -->

	<person id="1032">
		<attributes>
			<attribute name="drivelogic" class="java.lang.String" >org.matsim.contrib.smartcity.agent.CLASSDriverLogicBasic</attribute>
		</attributes>
		<plan selected="yes">
			<activity type="h" link="1833" max_dur="07:42:41" >
			</activity>
			<leg mode="car">
			</leg>
			<activity type="w" link="2090" start_time="07:49:07" end_time="18:35:45" >
			</activity>
			<leg mode="car">
			</leg>
			<activity type="h" link="1833" >
			</activity>
		</plan>

	</person>

<!-- ====================================================================== -->

	<person id="1033">
		<attributes>
			<attribute name="drivelogic" class="java.lang.String" >org.matsim.contrib.smartcity.agent.CLASSDriverLogicBasic</attribute>
		</attributes>
		<plan selected="yes">
			<activity type="h" link="1899" max_dur="08:43:48" >
			</activity>
			<leg mode="car">
			</leg>
			<activity type="w" link="1967" start_time="08:47:57" end_time="18:19:22" >
			</activity>
			<leg mode="car">
			</leg>
			<activity type="h" link="1899" >
			</activity>
		</plan>

	</person>

<!-- ====================================================================== -->

	<person id="1034">
		<attributes>
			<attribute name="drivelogic" class="java.lang.String" >org.matsim.contrib.smartcity.agent.CLASSDriverLogicBasic</attribute>
		</attributes>
		<plan selected="yes">
			<activity type="h" link="1354" max_dur="09:16:43" >
			</activity>
			<leg mode="car">
			</leg>
			<activity type="w" link="1293" start_time="09:18:50" end_time="17:36:00" >
			</activity>
			<leg mode="car">
			</leg>
			<activity type="h" link="1354" >
			</activity>
		</plan>

	</person>

<!-- ====================================================================== -->

	<person id="1035">
		<attributes>
			<attribute name="drivelogic" class="java.lang.String" >org.matsim.contrib.smartcity.agent.CLASSDriverLogicBasic</attribute>
		</attributes>
		<plan selected="yes">
			<activity type="h" link="994" max_dur="06:11:13" >
			</activity>
			<leg mode="car">
			</leg>
			<activity type="w" link="1164" start_time="06:14:24" end_time="17:58:41" >
			</activity>
			<leg mode="car">
			</leg>
			<activity type="h" link="994" >
			</activity>
		</plan>

	</person>

<!-- ====================================================================== -->

	<person id="1036">
		<attributes>
			<attribute name="drivelogic" class="java.lang.String" >org.matsim.contrib.smartcity.agent.CLASSDriverLogicBasic</attribute>
		</attributes>
		<plan selected="yes">
			<activity type="h" link="666" max_dur="07:27:12" >
			</activity>
			<leg mode="car">
			</leg>
			<activity type="w" link="1688" start_time="07:39:09" end_time="17:53:58" >
			</activity>
			<leg mode="car">
			</leg>
			<activity type="h" link="666" >
			</activity>
		</plan>

	</person>

<!-- ====================================================================== -->

	<person id="1037">
		<attributes>
			<attribute name="drivelogic" class="java.lang.String" >org.matsim.contrib.smartcity.agent.CLASSDriverLogicBasic</attribute>
		</attributes>
		<plan selected="yes">
			<activity type="h" link="1270" max_dur="08:06:46" >
			</activity>
			<leg mode="car">
			</leg>
			<activity type="w" link="1365" start_time="08:10:27" end_time="16:56:18" >
			</activity>
			<leg mode="car">
			</leg>
			<activity type="h" link="1270" >
			</activity>
		</plan>

	</person>

<!-- ====================================================================== -->

	<person id="1038">
		<attributes>
			<attribute name="drivelogic" class="java.lang.String" >org.matsim.contrib.smartcity.agent.CLASSDriverLogicBasic</attribute>
		</attributes>
		<plan selected="yes">
			<activity type="h" link="1920" max_dur="09:35:19" >
			</activity>
			<leg mode="car">
			</leg>
			<activity type="w" link="987" start_time="09:41:12" end_time="17:00:55" >
			</activity>
			<leg mode="car">
			</leg>
			<activity type="h" link="1920" >
			</activity>
		</plan>

	</person>

<!-- ====================================================================== -->

	<person id="1039">
		<attributes>
			<attribute name="drivelogic" class="java.lang.String" >org.matsim.contrib.smartcity.agent.CLASSDriverLogicBasic</attribute>
		</attributes>
		<plan selected="yes">
			<activity type="h" link="652" max_dur="09:05:59" >
			</activity>
			<leg mode="car">
			</leg>
			<activity type="w" link="493" start_time="09:06:34" end_time="18:43:49" >
			</activity>
			<leg mode="car">
			</leg>
			<activity type="h" link="652" >
			</activity>
		</plan>

	</person>

<!-- ====================================================================== -->

	<person id="104">
		<attributes>
			<attribute name="drivelogic" class="java.lang.String" >org.matsim.contrib.smartcity.agent.CLASSDriverLogicBasic</attribute>
		</attributes>
		<plan selected="yes">
			<activity type="h" link="526" max_dur="08:46:47" >
			</activity>
			<leg mode="car">
			</leg>
			<activity type="w" link="1950" start_time="08:48:27" end_time="18:28:33" >
			</activity>
			<leg mode="car">
			</leg>
			<activity type="h" link="526" >
			</activity>
		</plan>

	</person>

<!-- ====================================================================== -->

	<person id="1040">
		<attributes>
			<attribute name="drivelogic" class="java.lang.String" >org.matsim.contrib.smartcity.agent.CLASSDriverLogicBasic</attribute>
		</attributes>
		<plan selected="yes">
			<activity type="h" link="1411" max_dur="07:05:02" >
			</activity>
			<leg mode="car">
			</leg>
			<activity type="w" link="27" start_time="07:11:07" end_time="18:57:02" >
			</activity>
			<leg mode="car">
			</leg>
			<activity type="h" link="1411" >
			</activity>
		</plan>

	</person>

<!-- ====================================================================== -->

	<person id="1041">
		<attributes>
			<attribute name="drivelogic" class="java.lang.String" >org.matsim.contrib.smartcity.agent.CLASSDriverLogicBasic</attribute>
		</attributes>
		<plan selected="yes">
			<activity type="h" link="1711" max_dur="10:48:03" >
			</activity>
			<leg mode="car">
			</leg>
			<activity type="w" link="72" start_time="10:57:58" end_time="17:59:01" >
			</activity>
			<leg mode="car">
			</leg>
			<activity type="h" link="1711" >
			</activity>
		</plan>

	</person>

<!-- ====================================================================== -->

	<person id="1042">
		<attributes>
			<attribute name="drivelogic" class="java.lang.String" >org.matsim.contrib.smartcity.agent.CLASSDriverLogicBasic</attribute>
		</attributes>
		<plan selected="yes">
			<activity type="h" link="901" max_dur="07:49:17" >
			</activity>
			<leg mode="car">
			</leg>
			<activity type="w" link="476" start_time="07:57:41" end_time="17:27:50" >
			</activity>
			<leg mode="car">
			</leg>
			<activity type="h" link="901" >
			</activity>
		</plan>

	</person>

<!-- ====================================================================== -->

	<person id="1043">
		<attributes>
			<attribute name="drivelogic" class="java.lang.String" >org.matsim.contrib.smartcity.agent.CLASSDriverLogicBasic</attribute>
		</attributes>
		<plan selected="yes">
			<activity type="h" link="1654" max_dur="09:33:58" >
			</activity>