<?xml version="1.0" encoding="UTF-8"?>

<!-- generated on 2023-03-09 09:26:50 by Eclipse SUMO netedit Version 1.16.0
<configuration xmlns:xsi="http://www.w3.org/2001/XMLSchema-instance" xsi:noNamespaceSchemaLocation="http://sumo.dlr.de/xsd/netconvertConfiguration.xsd">

    <input>
        <sumo-net-file value="3k/MASA.net.xml"/>
    </input>

    <output>
        <output-file value="3k/MASA.net.xml"/>
    </output>

    <processing>
        <geometry.min-radius.fix.railways value="false"/>
        <geometry.max-grade.fix value="false"/>
        <offset.disable-normalization value="true"/>
        <lefthand value="0"/>
    </processing>

    <junctions>
        <no-turnarounds value="true"/>
        <junctions.corner-detail value="5"/>
        <junctions.limit-turn-speed value="5.50"/>
        <rectangular-lane-cut value="0"/>
    </junctions>

    <pedestrian>
        <walkingareas value="0"/>
    </pedestrian>

</configuration>
-->

<net version="1.16" junctionCornerDetail="5" limitTurnSpeed="5.50" xmlns:xsi="http://www.w3.org/2001/XMLSchema-instance" xsi:noNamespaceSchemaLocation="http://sumo.dlr.de/xsd/net_file.xsd">

    <location netOffset="-176553.33,-4952084.79" convBoundary="0.00,0.00,5647.80,5545.56" origBoundary="176553.33,4952084.79,182201.13,4957630.35" projParameter="!"/>

    <edge id=":10564569753_0" function="internal">
        <lane id=":10564569753_0_0" index="0" speed="4.17" length="1.08" shape="3303.30,840.03 3303.78,841.00"/>
    </edge>
    <edge id=":10564569753_1" function="internal">
        <lane id=":10564569753_1_0" index="0" speed="4.17" length="1.09" shape="3306.65,839.58 3306.16,838.60"/>
    </edge>
    <edge id=":10564569754_0" function="internal">
        <lane id=":10564569754_0_0" index="0" speed="4.17" length="0.30" shape="3319.91,841.21 3319.64,841.33"/>
    </edge>
    <edge id=":10564569754_1" function="internal">
        <lane id=":10564569754_1_0" index="0" speed="4.17" length="0.30" shape="3318.29,838.43 3318.56,838.31"/>
    </edge>
    <edge id=":10564569755_0" function="internal">
        <lane id=":10564569755_0_0" index="0" speed="4.17" length="0.10" shape="3467.45,782.24 3467.45,782.24"/>
    </edge>
    <edge id=":10564569755_1" function="internal">
        <lane id=":10564569755_1_0" index="0" speed="4.17" length="0.10" shape="3470.31,780.82 3470.31,780.82"/>
    </edge>
    <edge id=":10564569756_0" function="internal">
        <lane id=":10564569756_0_0" index="0" speed="4.17" length="0.10" shape="3609.12,712.21 3609.12,712.21"/>
    </edge>
    <edge id=":10564569756_1" function="internal">
        <lane id=":10564569756_1_0" index="0" speed="4.17" length="0.10" shape="3611.98,710.79 3611.98,710.79"/>
    </edge>
    <edge id=":10564569757_0" function="internal">
        <lane id=":10564569757_0_0" index="0" speed="4.17" length="0.30" shape="3710.96,660.14 3710.82,659.88"/>
    </edge>
    <edge id=":10564569757_1" function="internal">
        <lane id=":10564569757_1_0" index="0" speed="4.17" length="0.30" shape="3713.68,658.43 3713.82,658.70"/>
    </edge>
    <edge id=":10564569758_0" function="internal">
        <lane id=":10564569758_0_0" index="0" speed="4.17" length="0.30" shape="3955.95,907.73 3955.69,907.86"/>
    </edge>
    <edge id=":10564569758_1" function="internal">
        <lane id=":10564569758_1_0" index="0" speed="4.17" length="0.30" shape="3954.26,904.99 3954.53,904.86"/>
    </edge>
    <edge id=":10564569777_0" function="internal">
        <lane id=":10564569777_0_0" index="0" speed="4.17" length="0.10" shape="3787.85,603.80 3787.85,603.80"/>
    </edge>
    <edge id=":10564569778_0" function="internal">
        <lane id=":10564569778_0_0" index="0" speed="4.17" length="0.10" shape="3792.71,612.95 3792.71,612.95"/>
    </edge>
    <edge id=":1076629757_0" function="internal">
        <lane id=":1076629757_0_0" index="0" speed="8.12" length="4.90" shape="825.65,935.71 825.08,937.05 824.77,938.03 824.77,939.02 825.11,940.40"/>
    </edge>
    <edge id=":1076629757_1" function="internal">
        <lane id=":1076629757_1_0" index="0" speed="8.33" length="5.30" shape="821.57,935.87 822.73,937.16 823.67,937.96 824.44,938.86 825.11,940.40"/>
        <lane id=":1076629757_1_1" index="1" speed="8.33" length="5.30" shape="819.01,937.79 819.98,938.82 820.80,939.43 821.48,940.10 822.05,941.34"/>
    </edge>
    <edge id=":1076629758_0" function="internal">
        <lane id=":1076629758_0_0" index="0" speed="8.33" length="1.13" shape="827.46,948.10 827.60,948.58 827.67,948.91 827.68,949.26 827.66,949.76"/>
        <lane id=":1076629758_0_1" index="1" speed="8.33" length="1.13" shape="824.40,949.03 824.45,949.19 824.47,949.30 824.47,949.42 824.47,949.59"/>
    </edge>
    <edge id=":1076629761_0" function="internal">
        <lane id=":1076629761_0_0" index="0" speed="8.33" length="1.33" shape="827.29,956.66 827.25,957.25 827.19,957.65 827.04,958.04 826.78,958.57"/>
        <lane id=":1076629761_0_1" index="1" speed="8.33" length="1.33" shape="824.10,956.49 824.08,956.68 824.06,956.82 824.01,956.95 823.93,957.12"/>
    </edge>
    <edge id=":1076629764_0" function="internal">
        <lane id=":1076629764_0_0" index="0" speed="8.33" length="1.13" shape="808.01,976.08 807.54,976.24 807.20,976.33 806.86,976.36 806.36,976.36"/>
        <lane id=":1076629764_0_1" index="1" speed="8.33" length="1.13" shape="806.93,973.07 806.77,973.12 806.66,973.15 806.55,973.16 806.38,973.16"/>
    </edge>
    <edge id=":1076629766_0" function="internal">
        <lane id=":1076629766_0_0" index="0" speed="8.33" length="1.10" shape="799.42,976.31 798.93,976.30 798.59,976.27 798.26,976.18 797.80,976.02"/>
        <lane id=":1076629766_0_1" index="1" speed="8.33" length="1.10" shape="799.44,973.11 799.28,973.11 799.16,973.10 799.05,973.07 798.90,973.01"/>
    </edge>
    <edge id=":1076629767_0" function="internal">
        <lane id=":1076629767_0_0" index="0" speed="8.33" length="1.82" shape="788.66,972.63 789.98,972.89"/>
        <lane id=":1076629767_0_1" index="1" speed="8.33" length="1.82" shape="789.78,969.63 791.95,970.37"/>
    </edge>
    <edge id=":1076629769_0" function="internal">
        <lane id=":1076629769_0_0" index="0" speed="8.33" length="4.00" shape="780.77,962.68 781.31,966.09"/>
        <lane id=":1076629769_0_1" index="1" speed="8.33" length="4.00" shape="783.42,960.89 784.41,965.32"/>
    </edge>
    <edge id=":1076629770_0" function="internal">
        <lane id=":1076629770_0_0" index="0" speed="8.33" length="1.13" shape="778.43,954.43 778.32,953.94 778.27,953.60 778.27,953.26 778.32,952.76"/>
        <lane id=":1076629770_0_1" index="1" speed="8.33" length="1.13" shape="781.54,953.66 781.50,953.49 781.48,953.38 781.48,953.27 781.50,953.10"/>
    </edge>
    <edge id=":1076629771_0" function="internal">
        <lane id=":1076629771_0_0" index="0" speed="7.63" length="8.80" shape="779.22,944.36 779.45,941.77 779.40,939.97 778.97,938.22 778.07,935.78"/>
    </edge>
    <edge id=":1076629771_1" function="internal">
        <lane id=":1076629771_1_0" index="0" speed="8.33" length="7.45" shape="779.22,944.36 779.70,942.11 780.48,940.71 781.47,939.36 782.62,937.30"/>
        <lane id=":1076629771_1_1" index="1" speed="8.33" length="7.45" shape="782.40,944.70 782.85,942.75 783.58,941.55 784.51,940.39 785.54,938.60"/>
    </edge>
    <edge id=":1076629776_0" function="internal">
        <lane id=":1076629776_0_0" index="0" speed="8.33" length="1.12" shape="796.37,928.16 796.83,927.97 797.16,927.86 797.49,927.81 797.99,927.77"/>
        <lane id=":1076629776_0_1" index="1" speed="8.33" length="1.12" shape="797.66,931.09 797.81,931.03 797.92,930.99 798.03,930.98 798.20,930.96"/>
    </edge>
    <edge id=":1076629777_0" function="internal">
        <lane id=":1076629777_0_0" index="0" speed="8.33" length="1.12" shape="804.92,927.32 805.42,927.29 805.76,927.30 806.10,927.37 806.57,927.50"/>
        <lane id=":1076629777_0_1" index="1" speed="8.33" length="1.12" shape="805.13,930.51 805.29,930.50 805.41,930.51 805.52,930.53 805.68,930.57"/>
    </edge>
    <edge id=":1076629780_0" function="internal">
        <lane id=":1076629780_0_0" index="0" speed="8.33" length="1.25" shape="815.40,930.08 814.63,930.11"/>
        <lane id=":1076629780_0_1" index="1" speed="8.33" length="1.25" shape="814.50,933.15 812.81,932.74"/>
    </edge>
    <edge id=":1076629789_0" function="internal">
        <lane id=":1076629789_0_0" index="0" speed="11.04" length="1.09" shape="1097.96,623.80 1097.73,623.38 1097.59,623.07 1097.50,622.75 1097.41,622.28"/>
        <lane id=":1076629789_0_1" index="1" speed="13.89" length="1.09" shape="1100.75,622.23 1100.67,622.09 1100.62,621.98 1100.59,621.88 1100.56,621.72"/>
    </edge>
    <edge id=":1076629791_0" function="internal">
        <lane id=":1076629791_0_0" index="0" speed="13.89" length="0.71" shape="1099.20,605.93 1099.35,605.65 1099.45,605.46 1099.58,605.29 1099.78,605.04"/>
        <lane id=":1076629791_0_1" index="1" speed="13.89" length="0.71" shape="1102.07,607.36 1102.12,607.26 1102.15,607.20 1102.19,607.14 1102.26,607.06"/>
    </edge>
    <edge id=":1076629793_0" function="internal">
        <lane id=":1076629793_0_0" index="0" speed="7.21" length="5.72" shape="1101.95,598.92 1103.24,599.31 1104.59,599.35 1105.99,599.05 1107.44,598.40"/>
    </edge>
    <edge id=":1076629793_1" function="internal">
        <lane id=":1076629793_1_0" index="0" speed="13.89" length="6.53" shape="1101.90,602.28 1103.48,601.03 1104.57,600.18 1105.70,599.41 1107.44,598.40"/>
        <lane id=":1076629793_1_1" index="1" speed="13.89" length="6.53" shape="1103.86,604.81 1105.33,603.65 1106.33,602.85 1107.38,602.13 1108.99,601.20"/>
    </edge>
    <edge id=":1076629794_0" function="internal">
        <lane id=":1076629794_0_0" index="0" speed="13.89" length="1.59" shape="1119.00,596.71 1117.82,596.27"/>
        <lane id=":1076629794_0_1" index="1" speed="13.89" length="1.59" shape="1118.75,599.90 1116.93,599.35"/>
    </edge>
    <edge id=":1076629795_0" function="internal">
        <lane id=":1076629795_0_0" index="0" speed="13.89" length="4.15" shape="1134.71,606.93 1131.88,604.57"/>
        <lane id=":1076629795_0_1" index="1" speed="13.89" length="4.15" shape="1132.52,609.26 1129.10,606.15"/>
    </edge>
    <edge id=":1076629797_0" function="internal">
        <lane id=":1076629797_0_0" index="0" speed="13.89" length="0.61" shape="1135.53,614.12 1135.75,614.72"/>
        <lane id=":1076629797_0_1" index="1" speed="13.89" length="0.61" shape="1132.40,614.80 1132.59,614.25"/>
    </edge>
    <edge id=":1076629799_0" function="internal">
        <lane id=":1076629799_0_0" index="0" speed="12.21" length="1.03" shape="1129.25,630.53 1128.95,630.88 1128.72,631.10 1128.47,631.28 1128.08,631.52"/>
        <lane id=":1076629799_0_1" index="1" speed="13.89" length="1.03" shape="1126.82,628.44 1126.72,628.56 1126.65,628.63 1126.56,628.69 1126.43,628.77"/>
    </edge>
    <edge id=":1076629800_0" function="internal">
        <lane id=":1076629800_0_0" index="0" speed="13.89" length="0.66" shape="1113.79,635.56 1113.49,635.54 1113.29,635.53 1113.09,635.49 1112.81,635.42"/>
        <lane id=":1076629800_0_1" index="1" speed="13.89" length="0.66" shape="1113.90,632.36 1113.80,632.35 1113.74,632.35 1113.67,632.34 1113.58,632.31"/>
    </edge>
    <edge id=":1131728902_0" function="internal">
        <lane id=":1131728902_0_0" index="0" speed="4.17" length="1.47" shape="2533.26,2503.48 2532.83,2503.55 2532.53,2503.58 2532.23,2503.56 2531.80,2503.51"/>
    </edge>
    <edge id=":1131728902_1" function="internal">
        <lane id=":1131728902_1_0" index="0" speed="4.17" length="0.49" shape="2532.22,2500.34 2532.37,2500.36 2532.47,2500.36 2532.57,2500.35 2532.71,2500.33"/>
    </edge>
    <edge id=":1131728912_0" function="internal">
        <lane id=":1131728912_0_0" index="0" speed="6.94" length="0.10" shape="3757.12,4223.17 3757.18,4223.24"/>
    </edge>
    <edge id=":1131728912_1" function="internal">
        <lane id=":1131728912_1_0" index="0" speed="6.94" length="0.10" shape="3759.50,4221.04 3759.56,4221.11"/>
    </edge>
    <edge id=":1131728913_0" function="internal">
        <lane id=":1131728913_0_0" index="0" speed="4.17" length="0.30" shape="2544.41,2500.16 2544.12,2500.26"/>
    </edge>
    <edge id=":1131728913_1" function="internal">
        <lane id=":1131728913_1_0" index="0" speed="4.17" length="0.21" shape="2543.06,2497.24 2543.25,2497.17"/>
    </edge>
    <edge id=":1131728995_0" function="internal">
        <lane id=":1131728995_0_0" index="0" speed="4.17" length="0.29" shape="2486.50,2441.34 2486.45,2441.26 2486.42,2441.21 2486.38,2441.16 2486.33,2441.10"/>
    </edge>
    <edge id=":1131728995_1" function="internal">
        <lane id=":1131728995_1_0" index="0" speed="4.17" length="0.88" shape="2488.72,2438.98 2488.90,2439.18 2489.01,2439.32 2489.11,2439.47 2489.24,2439.69"/>
    </edge>
    <edge id=":1131729107_0" function="internal">
        <lane id=":1131729107_0_0" index="0" speed="6.94" length="0.13" shape="3108.63,3813.63 3108.51,3813.56"/>
    </edge>
    <edge id=":1131729107_1" function="internal">
        <lane id=":1131729107_1_0" index="0" speed="6.94" length="0.40" shape="3109.93,3810.70 3110.28,3810.89"/>
    </edge>
    <edge id=":1131729116_0" function="internal">
        <lane id=":1131729116_0_0" index="0" speed="6.94" length="0.28" shape="4869.06,5230.31 4868.80,5230.20"/>
    </edge>
    <edge id=":1131729116_1" function="internal">
        <lane id=":1131729116_1_0" index="0" speed="6.94" length="0.31" shape="4870.07,5227.26 4870.35,5227.39"/>
    </edge>
    <edge id=":1131729134_0" function="internal">
        <lane id=":1131729134_0_0" index="0" speed="6.94" length="0.15" shape="4679.07,5035.44 4678.96,5035.35"/>
    </edge>
    <edge id=":1131729134_1" function="internal">
        <lane id=":1131729134_1_0" index="0" speed="6.94" length="0.28" shape="4680.87,5032.78 4681.09,5032.96"/>
    </edge>
    <edge id=":1131729182_0" function="internal">
        <lane id=":1131729182_0_0" index="0" speed="4.17" length="0.22" shape="2722.13,2350.63 2721.94,2350.75"/>
    </edge>
    <edge id=":1131729182_1" function="internal">
        <lane id=":1131729182_1_0" index="0" speed="4.17" length="0.31" shape="2720.19,2348.07 2720.45,2347.91"/>
    </edge>
    <edge id=":1131729203_0" function="internal">
        <lane id=":1131729203_0_0" index="0" speed="6.94" length="0.40" shape="3826.31,4347.56 3826.14,4347.20"/>
    </edge>
    <edge id=":1131729203_1" function="internal">
        <lane id=":1131729203_1_0" index="0" speed="6.94" length="0.13" shape="3829.08,4345.94 3829.14,4346.06"/>
    </edge>
    <edge id=":1131729216_0" function="internal">
        <lane id=":1131729216_0_0" index="0" speed="3.65" length="4.67" shape="5647.93,5543.97 5649.06,5544.86 5649.39,5545.69 5648.93,5546.45 5647.67,5547.15"/>
    </edge>
    <edge id=":1131729226_0" function="internal">
        <lane id=":1131729226_0_0" index="0" speed="6.94" length="0.29" shape="4818.07,5205.28 4817.82,5205.14"/>
    </edge>
    <edge id=":1131729226_1" function="internal">
        <lane id=":1131729226_1_0" index="0" speed="6.94" length="0.16" shape="4819.49,5202.40 4819.63,5202.49"/>
    </edge>
    <edge id=":1131729260_0" function="internal">
        <lane id=":1131729260_0_0" index="0" speed="4.17" length="0.73" shape="2566.23,2491.67 2566.04,2491.77 2565.91,2491.84 2565.77,2491.90 2565.57,2491.98"/>
    </edge>
    <edge id=":1131729260_1" function="internal">
        <lane id=":1131729260_1_0" index="0" speed="4.17" length="0.24" shape="2564.42,2488.99 2564.48,2488.97 2564.53,2488.95 2564.57,2488.93 2564.64,2488.89"/>
    </edge>
    <edge id=":1131729363_0" function="internal">
        <lane id=":1131729363_0_0" index="0" speed="4.17" length="0.50" shape="2515.16,2492.06 2515.07,2491.93 2515.02,2491.85 2514.96,2491.76 2514.89,2491.63"/>
    </edge>
    <edge id=":1131729363_1" function="internal">
        <lane id=":1131729363_1_0" index="0" speed="4.17" length="0.17" shape="2517.69,2490.08 2517.71,2490.12 2517.73,2490.15 2517.75,2490.18 2517.78,2490.22"/>
    </edge>
    <edge id=":1131729380_0" function="internal">
        <lane id=":1131729380_0_0" index="0" speed="4.17" length="0.31" shape="3346.04,2047.42 3345.78,2047.59"/>
    </edge>
    <edge id=":1131729380_1" function="internal">
        <lane id=":1131729380_1_0" index="0" speed="4.17" length="0.23" shape="3344.05,2044.90 3344.25,2044.77"/>
    </edge>
    <edge id=":1131729385_0" function="internal">
        <lane id=":1131729385_0_0" index="0" speed="6.94" length="0.21" shape="2962.79,3746.20 2962.60,3746.12"/>
    </edge>
    <edge id=":1131729385_1" function="internal">
        <lane id=":1131729385_1_0" index="0" speed="6.94" length="0.30" shape="2963.68,3743.11 2963.96,3743.22"/>
    </edge>
    <edge id=":1131729423_0" function="internal">
        <lane id=":1131729423_0_0" index="0" speed="4.17" length="0.31" shape="2948.85,2288.13 2948.56,2288.24"/>
    </edge>
    <edge id=":1131729423_1" function="internal">
        <lane id=":1131729423_1_0" index="0" speed="4.17" length="0.29" shape="2947.42,2285.25 2947.69,2285.14"/>
    </edge>
    <edge id=":1131729452_0" function="internal">
        <lane id=":1131729452_0_0" index="0" speed="5.55" length="11.49" shape="2293.09,2518.59 2289.80,2519.86 2287.30,2521.45 2285.59,2523.37 2284.66,2525.62"/>
    </edge>
    <edge id=":1131729452_1" function="internal">
        <lane id=":1131729452_1_0" index="0" speed="5.55" length="15.79" shape="2293.09,2518.59 2288.55,2519.28 2285.42,2518.22 2283.68,2515.41 2283.35,2510.83"/>
    </edge>
    <edge id=":1131729452_2" function="internal">
        <lane id=":1131729452_2_0" index="0" speed="3.65" length="4.67" shape="2293.09,2518.59 2291.71,2518.17 2291.09,2517.52 2291.24,2516.63 2292.16,2515.52"/>
    </edge>
    <edge id=":1131729452_3" function="internal">
        <lane id=":1131729452_3_0" index="0" speed="5.55" length="9.12" shape="2286.54,2511.05 2286.74,2513.69 2287.74,2515.31 2289.55,2515.93 2292.16,2515.52"/>
    </edge>
    <edge id=":1131729452_4" function="internal">
        <lane id=":1131729452_4_0" index="0" speed="6.94" length="14.71" shape="2286.54,2511.05 2286.26,2514.74 2285.88,2518.37 2285.36,2521.99 2284.66,2525.62"/>
    </edge>
    <edge id=":1131729452_5" function="internal">
        <lane id=":1131729452_5_0" index="0" speed="3.65" length="1.44" shape="2286.54,2511.05 2285.66,2512.19"/>
    </edge>
    <edge id=":1131729452_9" function="internal">
        <lane id=":1131729452_9_0" index="0" speed="3.65" length="3.23" shape="2285.66,2512.19 2284.84,2512.54 2284.07,2512.08 2283.35,2510.83"/>
    </edge>
    <edge id=":1131729452_6" function="internal">
        <lane id=":1131729452_6_0" index="0" speed="6.94" length="14.23" shape="2281.54,2524.93 2282.23,2521.37 2282.72,2517.92 2283.08,2514.45 2283.35,2510.83"/>
    </edge>
    <edge id=":1131729452_7" function="internal">
        <lane id=":1131729452_7_0" index="0" speed="5.55" length="3.44" shape="2281.54,2524.93 2282.75,2521.85 2282.83,2521.75"/>
    </edge>
    <edge id=":1131729452_8" function="internal">
        <lane id=":1131729452_8_0" index="0" speed="3.65" length="1.44" shape="2281.54,2524.93 2282.58,2523.93"/>
    </edge>
    <edge id=":1131729452_10" function="internal">
        <lane id=":1131729452_10_0" index="0" speed="5.55" length="11.45" shape="2282.83,2521.75 2284.93,2519.25 2288.07,2517.14 2292.16,2515.52"/>
    </edge>
    <edge id=":1131729452_11" function="internal">
        <lane id=":1131729452_11_0" index="0" speed="3.65" length="3.23" shape="2282.58,2523.93 2283.44,2523.71 2284.14,2524.28 2284.66,2525.62"/>
    </edge>
    <edge id=":1131729483_0" function="internal">
        <lane id=":1131729483_0_0" index="0" speed="6.94" length="0.22" shape="4714.98,5070.43 4714.94,5070.38 4714.91,5070.34 4714.88,5070.31 4714.84,5070.26"/>
    </edge>
    <edge id=":1131729483_1" function="internal">
        <lane id=":1131729483_1_0" index="0" speed="6.94" length="0.67" shape="4717.18,5068.07 4717.31,5068.22 4717.40,5068.32 4717.48,5068.43 4717.60,5068.60"/>
    </edge>
    <edge id=":1131729498_0" function="internal">
        <lane id=":1131729498_0_0" index="0" speed="6.94" length="0.10" shape="4608.10,4992.91 4608.03,4992.87"/>
    </edge>
    <edge id=":1131729498_1" function="internal">
        <lane id=":1131729498_1_0" index="0" speed="6.94" length="0.10" shape="4609.69,4990.13 4609.62,4990.09"/>
    </edge>
    <edge id=":1131729516_0" function="internal">
        <lane id=":1131729516_0_0" index="0" speed="6.94" length="0.15" shape="4023.86,4585.99 4023.74,4585.90"/>
    </edge>
    <edge id=":1131729516_1" function="internal">
        <lane id=":1131729516_1_0" index="0" speed="6.94" length="0.28" shape="4025.69,4583.35 4025.91,4583.53"/>
    </edge>
    <edge id=":1131729533_0" function="internal">
        <lane id=":1131729533_0_0" index="0" speed="4.17" length="0.10" shape="2753.94,2337.06 2754.01,2337.04"/>
    </edge>
    <edge id=":1131729533_1" function="internal">
        <lane id=":1131729533_1_0" index="0" speed="4.17" length="0.10" shape="2753.11,2333.98 2753.18,2333.96"/>
    </edge>
    <edge id=":1131729559_0" function="internal">
        <lane id=":1131729559_0_0" index="0" speed="6.94" length="0.83" shape="5549.65,5535.76 5549.41,5535.70 5549.25,5535.65 5549.09,5535.58 5548.87,5535.48"/>
    </edge>
    <edge id=":1131729559_1" function="internal">
        <lane id=":1131729559_1_0" index="0" speed="6.94" length="0.28" shape="5550.19,5532.57 5550.26,5532.60 5550.32,5532.62 5550.37,5532.64 5550.45,5532.66"/>
    </edge>
    <edge id=":1131729567_0" function="internal">
        <lane id=":1131729567_0_0" index="0" speed="6.94" length="0.62" shape="2327.47,3096.26 2327.36,3096.11 2327.29,3096.00 2327.23,3095.89 2327.15,3095.73"/>
    </edge>
    <edge id=":1131729567_1" function="internal">
        <lane id=":1131729567_1_0" index="0" speed="6.94" length="0.21" shape="2330.00,3094.28 2330.03,3094.34 2330.05,3094.37 2330.07,3094.41 2330.11,3094.46"/>
    </edge>
    <edge id=":1131729584_0" function="internal">
        <lane id=":1131729584_0_0" index="0" speed="6.94" length="0.36" shape="4774.41,5165.98 4774.19,5165.69"/>
    </edge>
    <edge id=":1131729584_1" function="internal">
        <lane id=":1131729584_1_0" index="0" speed="6.94" length="0.12" shape="4776.79,5163.83 4776.87,5163.93"/>
    </edge>
    <edge id=":1131729631_0" function="internal">
        <lane id=":1131729631_0_0" index="0" speed="4.17" length="0.25" shape="2615.19,2453.83 2615.03,2454.02"/>
    </edge>
    <edge id=":1131729631_1" function="internal">
        <lane id=":1131729631_1_0" index="0" speed="4.17" length="0.31" shape="2612.59,2451.95 2612.79,2451.72"/>
    </edge>
    <edge id=":1131729722_0" function="internal">
        <lane id=":1131729722_0_0" index="0" speed="4.17" length="1.19" shape="2524.07,2501.46 2523.74,2501.33 2523.52,2501.23 2523.32,2501.10 2523.03,2500.89"/>
    </edge>
    <edge id=":1131729722_1" function="internal">
        <lane id=":1131729722_1_0" index="0" speed="4.17" length="0.40" shape="2524.91,2498.30 2525.00,2498.37 2525.07,2498.41 2525.14,2498.45 2525.25,2498.49"/>
    </edge>
    <edge id=":1131729791_0" function="internal">
        <lane id=":1131729791_0_0" index="0" speed="4.17" length="0.30" shape="2534.57,1709.82 2534.32,1710.00"/>
    </edge>
    <edge id=":1131729791_1" function="internal">
        <lane id=":1131729791_1_0" index="0" speed="4.17" length="0.30" shape="2532.48,1707.38 2532.72,1707.21"/>
    </edge>
    <edge id=":1131729829_0" function="internal">
        <lane id=":1131729829_0_0" index="0" speed="6.94" length="0.10" shape="4802.36,5194.40 4802.30,5194.34"/>
    </edge>
    <edge id=":1131729829_1" function="internal">
        <lane id=":1131729829_1_0" index="0" speed="6.94" length="0.10" shape="4804.38,5191.92 4804.32,5191.86"/>
    </edge>
    <edge id=":1131729832_0" function="internal">
        <lane id=":1131729832_0_0" index="0" speed="4.17" length="0.12" shape="2463.70,2437.20 2463.59,2437.25"/>
    </edge>
    <edge id=":1131729832_1" function="internal">
        <lane id=":1131729832_1_0" index="0" speed="4.17" length="0.36" shape="2462.19,2434.37 2462.52,2434.23"/>
    </edge>
    <edge id=":1131729927_0" function="internal">
        <lane id=":1131729927_0_0" index="0" speed="4.17" length="0.29" shape="2875.96,2307.27 2875.67,2307.34"/>
    </edge>
    <edge id=":1131729927_1" function="internal">
        <lane id=":1131729927_1_0" index="0" speed="4.17" length="0.31" shape="2874.92,2304.23 2875.21,2304.16"/>
    </edge>
    <edge id=":1131729956_0" function="internal">
        <lane id=":1131729956_0_0" index="0" speed="6.94" length="0.24" shape="5341.27,5441.30 5341.04,5441.21"/>
    </edge>
    <edge id=":1131729956_1" function="internal">
        <lane id=":1131729956_1_0" index="0" speed="6.94" length="0.31" shape="5342.30,5438.26 5342.59,5438.39"/>
    </edge>
    <edge id=":1131729963_0" function="internal">
        <lane id=":1131729963_0_0" index="0" speed="6.94" length="0.11" shape="4721.37,5079.56 4721.31,5079.47"/>
    </edge>
    <edge id=":1131729963_1" function="internal">
        <lane id=":1131729963_1_0" index="0" speed="6.94" length="0.32" shape="4723.93,5077.63 4724.11,5077.91"/>
    </edge>
    <edge id=":1131730012_0" function="internal">
        <lane id=":1131730012_0_0" index="0" speed="4.17" length="0.31" shape="2670.92,2390.49 2670.72,2390.73"/>
    </edge>
    <edge id=":1131730012_1" function="internal">
        <lane id=":1131730012_1_0" index="0" speed="4.17" length="0.26" shape="2668.31,2388.61 2668.49,2388.41"/>
    </edge>
    <edge id=":1131730015_0" function="internal">
        <lane id=":1131730015_0_0" index="0" speed="6.94" length="0.31" shape="4426.41,4888.80 4426.13,4888.66"/>
    </edge>
    <edge id=":1131730015_1" function="internal">
        <lane id=":1131730015_1_0" index="0" speed="6.94" length="0.24" shape="4427.56,4885.80 4427.77,4885.90"/>
    </edge>
    <edge id=":1131730025_0" function="internal">
        <lane id=":1131730025_0_0" index="0" speed="6.94" length="0.31" shape="4031.95,4592.72 4031.71,4592.53"/>
    </edge>
    <edge id=":1131730025_1" function="internal">
        <lane id=":1131730025_1_0" index="0" speed="6.94" length="0.22" shape="4033.76,4590.07 4033.93,4590.21"/>
    </edge>
    <edge id=":1131730029_0" function="internal">
        <lane id=":1131730029_0_0" index="0" speed="6.94" length="0.27" shape="3580.90,4094.51 3580.71,4094.31"/>
    </edge>
    <edge id=":1131730029_1" function="internal">
        <lane id=":1131730029_1_0" index="0" speed="6.94" length="0.31" shape="3582.94,4092.02 3583.16,4092.24"/>
    </edge>
    <edge id=":122006267_0" function="internal">
        <lane id=":122006267_0_0" index="0" speed="19.44" length="0.26" shape="2653.99,775.95 2654.06,775.83"/>
        <lane id=":122006267_0_1" index="1" speed="19.44" length="0.26" shape="2656.70,777.66 2656.89,777.32"/>
    </edge>
    <edge id=":122006271_0" function="internal">
        <lane id=":122006271_0_0" index="0" speed="19.44" length="0.24" shape="2581.36,873.18 2581.44,873.10"/>
        <lane id=":122006271_0_1" index="1" speed="19.44" length="0.24" shape="2583.57,875.50 2583.82,875.24"/>
    </edge>
    <edge id=":122006274_0" function="internal">
        <lane id=":122006274_0_0" index="0" speed="16.66" length="6.19" shape="2548.46,900.21 2553.76,903.39"/>
    </edge>
    <edge id=":122006274_1" function="internal">
        <lane id=":122006274_1_0" index="0" speed="19.44" length="1.67" shape="2550.52,902.66 2551.40,901.84"/>
        <lane id=":122006274_1_1" index="1" speed="19.44" length="1.67" shape="2552.58,905.11 2554.15,903.65"/>
    </edge>
    <edge id=":122006276_0" function="internal">
        <lane id=":122006276_0_0" index="0" speed="19.44" length="8.44" shape="2424.30,984.38 2426.26,982.94 2427.14,981.32 2427.99,979.67 2429.91,978.13"/>
        <lane id=":122006276_0_1" index="1" speed="19.44" length="8.44" shape="2425.61,987.29 2427.62,985.84 2428.52,984.20 2429.41,982.54 2431.37,980.98"/>
        <lane id=":122006276_0_2" index="2" speed="19.44" length="8.44" shape="2425.61,987.29 2432.82,983.83"/>
    </edge>
    <edge id=":122006279_0" function="internal">
        <lane id=":122006279_0_0" index="0" speed="19.44" length="0.36" shape="2021.49,1127.65 2021.63,1127.58 2021.73,1127.53 2021.83,1127.49 2021.98,1127.44"/>
        <lane id=":122006279_0_1" index="1" speed="19.44" length="0.36" shape="2022.90,1130.52 2022.94,1130.50 2022.98,1130.48 2023.01,1130.47 2023.06,1130.45"/>
    </edge>
    <edge id=":122006281_0" function="internal">
        <lane id=":122006281_0_0" index="0" speed="19.44" length="0.22" shape="1978.47,1148.69 1978.75,1148.54"/>
        <lane id=":122006281_0_1" index="1" speed="19.44" length="0.22" shape="1980.06,1151.46 1980.16,1151.41"/>
    </edge>
    <edge id=":122006284_0" function="internal">
        <lane id=":122006284_0_0" index="0" speed="19.44" length="0.28" shape="1876.10,1219.94 1876.34,1219.74"/>
        <lane id=":122006284_0_1" index="1" speed="19.44" length="0.28" shape="1878.17,1222.38 1878.37,1222.22"/>
    </edge>
    <edge id=":1359262854_0" function="internal">
        <lane id=":1359262854_0_0" index="0" speed="13.89" length="0.49" shape="1105.19,574.94 1105.31,574.85 1105.38,574.79 1105.44,574.71 1105.53,574.59"/>
    </edge>
    <edge id=":1359262856_0" function="internal">
        <lane id=":1359262856_0_0" index="0" speed="13.89" length="0.10" shape="1087.79,592.58 1087.76,592.54"/>
    </edge>
    <edge id=":1359262856_1" function="internal">
        <lane id=":1359262856_1_0" index="0" speed="13.89" length="0.28" shape="1090.18,590.45 1090.36,590.67"/>
    </edge>
    <edge id=":1419841622_0" function="internal">