<routes xmlns:xsi="http://www.w3.org/2001/XMLSchema-instance" xsi:noNamespaceSchemaLocation="http://sumo.dlr.de/xsd/routes_file.xsd">
  
  <vType id="car" vClass="passenger"/>
    <vType id="bicycle" vClass="bicycle"/>
    <!-- <trip id="622_0" depart="22485.00" from="2389" to="4684" type="car" /> -->
    <trip id="1455_0" depart="22517.00" from="2230" to="2560" type="car" />
    <trip id="621_0" depart="22940.00" from="1226" to="2418" type="car" />
    <trip id="870_0" depart="23022.00" from="2730" to="2897" type="car" />
    <trip id="81_0" depart="23044.00" from="555" to="576" type="car" />
    <trip id="588_0" depart="23088.00" from="4941" to="110" type="car" />
    <trip id="1249_0" depart="23094.00" from="4228" to="2687" type="car" />
    <trip id="640_0" depart="23183.00" from="4979" to="3628" type="car" />
    <trip id="1188_0" depart="23281.00" from="1056" to="2304" type="car" />
    <trip id="1471_0" depart="23310.00" from="5009" to="2441" type="car" />
    <trip id="41_0" depart="23331.00" from="2670" to="3923" type="car" />
    <trip id="2284_0" depart="23338.00" from="18" to="153" type="car" />
    <trip id="341_0" depart="23357.00" from="4193" to="1565" type="car" />
    <trip id="597_0" depart="23378.00" from="2991" to="3941" type="car" />
    <trip id="78_0" depart="23478.00" from="4276" to="1710" type="car" />
    <trip id="2295_0" depart="23550.00" from="3224" to="2605" type="car" />
    <trip id="629_0" depart="23594.00" from="2465" to="2663" type="car" />
    <trip id="265_0" depart="23740.00" from="262" to="2912" type="car" />
    <trip id="2492_0" depart="23837.00" from="2344" to="5076" type="car" />
    <trip id="82_0" depart="24048.00" from="1614" to="2658" type="car" />
    <trip id="1336_0" depart="24095.00" from="938" to="642" type="car" />
    <trip id="2215_0" depart="24117.00" from="3541" to="1230" type="car" />
    <trip id="1440_0" depart="24307.00" from="608" to="2416" type="car" />
    <trip id="439_0" depart="24346.00" from="2894" to="951" type="car" />
    <trip id="336_0" depart="24359.00" from="1606" to="806" type="car" />
    <trip id="2080_0" depart="24402.00" from="2094" to="2315" type="car" />
    <trip id="1365_0" depart="24409.00" from="1700" to="3407" type="car" />
    <trip id="598_0" depart="24444.00" from="3865" to="2398" type="car" />
    <trip id="407_0" depart="24446.00" from="2401" to="4414" type="car" />
    <trip id="642_0" depart="24456.00" from="3739" to="346" type="car" />
    <trip id="121_0" depart="24479.00" from="1640" to="4822" type="car" />
    <trip id="2137_0" depart="24501.00" from="2292" to="565" type="car" />
    <trip id="242_0" depart="24508.00" from="2667" to="2283" type="car" />
    <trip id="1983_0" depart="24521.00" from="3756" to="4578" type="car" />
    <trip id="1556_0" depart="24594.00" from="2698" to="1354" type="car" />
    <trip id="2023_0" depart="24672.00" from="262" to="3638" type="car" />
    <trip id="1216_0" depart="24683.00" from="3397" to="725" type="car" />
    <trip id="2236_0" depart="24715.00" from="3636" to="4400" type="car" />
    <trip id="1668_0" depart="24771.00" from="290" to="289" type="car" />
    <trip id="2187_0" depart="24772.00" from="487" to="2281" type="car" />
    <trip id="1939_0" depart="24902.00" from="1491" to="2329" type="car" />
    <trip id="2493_0" depart="24977.00" from="2276" to="1220" type="car" />
    <trip id="2037_0" depart="25000.00" from="3700" to="4158" type="car" />
    <trip id="1490_0" depart="25029.00" from="1635" to="2164" type="car" />
    <trip id="2235_0" depart="25032.00" from="2488" to="3813" type="car" />
    <trip id="1240_0" depart="25207.00" from="508" to="1080" type="car" />
    <trip id="2311_0" depart="25208.00" from="555" to="830" type="car" />
    <trip id="109_0" depart="25216.00" from="3474" to="109" type="car" />
    <trip id="140_0" depart="25229.00" from="1270" to="373" type="car" />
    <trip id="2171_0" depart="25292.00" from="4621" to="2908" type="car" />
    <trip id="987_0" depart="25305.00" from="3138" to="5165" type="car" />
    <trip id="1738_0" depart="25316.00" from="844" to="2691" type="car" />
    <trip id="1463_0" depart="25320.00" from="5128" to="2526" type="car" />
    <trip id="1673_0" depart="25324.00" from="5118" to="439" type="car" />
    <trip id="228_0" depart="25352.00" from="192" to="728" type="car" />
    <trip id="1108_0" depart="25370.00" from="1564" to="1727" type="car" />
    <trip id="120_0" depart="25373.00" from="3761" to="5194" type="car" />
    <trip id="2131_0" depart="25395.00" from="1048" to="4724" type="car" />
    <trip id="2211_0" depart="25529.00" from="3962" to="105" type="car" />
    <trip id="2020_0" depart="25609.00" from="4376" to="4432" type="car" />
    <trip id="810_0" depart="25649.00" from="3112" to="2347" type="car" />
    <trip id="1058_0" depart="25695.00" from="5199" to="4429" type="car" />
    <trip id="200_0" depart="25704.00" from="1929" to="455" type="car" />
    <trip id="1416_0" depart="25729.00" from="3738" to="322" type="car" />
    <trip id="2369_0" depart="25730.00" from="3423" to="1867" type="car" />
    <trip id="1282_0" depart="25783.00" from="1772" to="3615" type="car" />
    <trip id="2275_0" depart="25799.00" from="5116" to="4369" type="car" />
    <trip id="1533_0" depart="25822.00" from="3149" to="400" type="car" />
    <trip id="1541_0" depart="25846.00" from="459" to="3500" type="car" />
    <trip id="1205_0" depart="25852.00" from="4089" to="236" type="car" />
    <trip id="2335_0" depart="25858.00" from="3407" to="4587" type="car" />
    <trip id="626_0" depart="25859.00" from="2697" to="3873" type="car" />
    <trip id="275_0" depart="25896.00" from="4728" to="4006" type="car" />
    <trip id="1162_0" depart="25917.00" from="693" to="4406" type="car" />
    <trip id="660_0" depart="25937.00" from="4661" to="2618" type="car" />
    <trip id="889_0" depart="25942.00" from="1212" to="2518" type="car" />
    <trip id="482_0" depart="25948.00" from="4776" to="194" type="car" />
    <trip id="1850_0" depart="25951.00" from="1021" to="3530" type="car" />
    <trip id="776_0" depart="25954.00" from="2708" to="801" type="car" />
    <trip id="1653_0" depart="25956.00" from="4540" to="1294" type="car" />
    <trip id="1314_0" depart="25968.00" from="3574" to="2019" type="car" />
    <trip id="1931_0" depart="25972.00" from="3289" to="3656" type="car" />
    <trip id="382_0" depart="25989.00" from="3293" to="5053" type="car" />
    <trip id="1258_0" depart="25992.00" from="5009" to="2184" type="car" />
    <trip id="2260_0" depart="25992.00" from="165" to="4999" type="car" />
    <trip id="1290_0" depart="25996.00" from="3768" to="4249" type="car" />
    <trip id="926_0" depart="26002.00" from="1057" to="1618" type="car" />
    <trip id="994_0" depart="26007.00" from="1676" to="1880" type="car" />
    <trip id="2264_0" depart="26012.00" from="3000" to="675" type="car" />
    <trip id="2289_0" depart="26054.00" from="4286" to="2311" type="car" />
    <trip id="2014_0" depart="26059.00" from="1438" to="1340" type="car" />
    <trip id="2326_0" depart="26061.00" from="1965" to="5100" type="car" />
    <trip id="1135_0" depart="26088.00" from="308" to="826" type="car" />
    <trip id="434_0" depart="26093.00" from="1182" to="5203" type="car" />
    <trip id="2303_0" depart="26123.00" from="2214" to="2684" type="car" />
    <trip id="486_0" depart="26123.00" from="2551" to="2242" type="car" />
    <trip id="241_0" depart="26124.00" from="2307" to="3218" type="car" />
    <trip id="628_0" depart="26160.00" from="4975" to="1807" type="car" />
    <trip id="2419_0" depart="26171.00" from="3174" to="2225" type="car" />
    <trip id="1591_0" depart="26176.00" from="1628" to="794" type="car" />
    <trip id="1134_0" depart="26200.00" from="4948" to="1506" type="car" />
    <trip id="2094_0" depart="26204.00" from="3246" to="3936" type="car" />
    <trip id="0_0" depart="26227.00" from="1331" to="5015" type="car" />
    <trip id="1687_0" depart="26252.00" from="1296" to="2444" type="car" />
    <trip id="932_0" depart="26255.00" from="1572" to="4249" type="car" />
    <trip id="237_0" depart="26277.00" from="3196" to="3532" type="car" />
    <trip id="199_0" depart="26312.00" from="4628" to="926" type="car" />
    <trip id="1669_0" depart="26320.00" from="2723" to="560" type="car" />
    <trip id="1586_0" depart="26329.00" from="2174" to="1354" type="car" />
    <trip id="1587_0" depart="26333.00" from="4046" to="3951" type="car" />
    <trip id="1980_0" depart="26346.00" from="3075" to="392" type="car" />
    <trip id="706_0" depart="26388.00" from="515" to="979" type="car" />
    <trip id="1886_0" depart="26391.00" from="1577" to="1708" type="car" />
    <trip id="418_0" depart="26406.00" from="4951" to="4564" type="car" />
    <trip id="1779_0" depart="26411.00" from="945" to="1713" type="car" />
    <trip id="1223_0" depart="26449.00" from="1901" to="3071" type="car" />
    <trip id="1797_0" depart="26479.00" from="3542" to="915" type="car" />
    <trip id="1573_0" depart="26480.00" from="2674" to="4944" type="car" />
    <trip id="945_0" depart="26481.00" from="2721" to="3809" type="car" />
    <trip id="580_0" depart="26495.00" from="5003" to="3269" type="car" />
    <trip id="1484_0" depart="26524.00" from="4973" to="837" type="car" />
    <trip id="1421_0" depart="26533.00" from="3216" to="845" type="car" />
    <trip id="260_0" depart="26572.00" from="953" to="1659" type="car" />
    <trip id="455_0" depart="26576.00" from="98" to="4925" type="car" />
    <trip id="904_0" depart="26588.00" from="1858" to="4143" type="car" />
    <trip id="899_0" depart="26590.00" from="2535" to="57" type="car" />
    <trip id="84_0" depart="26599.00" from="4156" to="1593" type="car" />
    <trip id="1493_0" depart="26670.00" from="260" to="1797" type="car" />
    <trip id="1927_0" depart="26670.00" from="4225" to="4156" type="car" />
    <trip id="1870_0" depart="26675.00" from="3960" to="2678" type="car" />
    <trip id="1034_0" depart="26679.00" from="564" to="1461" type="car" />
    <trip id="693_0" depart="26732.00" from="4509" to="4100" type="car" />
    <trip id="2050_0" depart="26740.00" from="3668" to="3703" type="car" />
    <trip id="131_0" depart="26755.00" from="2909" to="4960" type="car" />
    <trip id="2485_0" depart="26773.00" from="4767" to="210" type="car" />
    <trip id="1115_0" depart="26785.00" from="4659" to="4765" type="car" />
    <trip id="2355_0" depart="26795.00" from="160" to="2099" type="car" />
    <trip id="152_0" depart="26817.00" from="5010" to="4148" type="car" />
    <trip id="887_0" depart="26817.00" from="2466" to="72" type="car" />
    <trip id="1671_0" depart="26854.00" from="2081" to="2469" type="car" />
    <trip id="1854_0" depart="26857.00" from="1241" to="5072" type="car" />
    <trip id="1241_0" depart="26875.00" from="931" to="3548" type="car" />
    <trip id="1164_0" depart="26886.00" from="689" to="3293" type="car" />
    <trip id="1010_0" depart="26889.00" from="4229" to="3253" type="car" />
    <trip id="751_0" depart="26890.00" from="3978" to="3030" type="car" />
    <trip id="2370_0" depart="26897.00" from="1160" to="1296" type="car" />
    <trip id="433_0" depart="26907.00" from="149" to="4747" type="car" />
    <trip id="2342_0" depart="26909.00" from="2217" to="1908" type="car" />
    <trip id="2041_0" depart="26923.00" from="3267" to="4623" type="car" />
    <trip id="854_0" depart="26948.00" from="1590" to="3442" type="car" />
    <trip id="1061_0" depart="26953.00" from="3419" to="1905" type="car" />
    <trip id="880_0" depart="26961.00" from="3404" to="3636" type="car" />
    <trip id="1606_0" depart="26972.00" from="949" to="1271" type="car" />
    <trip id="2117_0" depart="26985.00" from="3425" to="2145" type="car" />
    <trip id="1883_0" depart="27004.00" from="3511" to="625" type="car" />
    <trip id="2312_0" depart="27005.00" from="836" to="1208" type="car" />
    <trip id="1750_0" depart="27020.00" from="331" to="3762" type="car" />
    <trip id="48_0" depart="27049.00" from="4791" to="794" type="car" />
    <trip id="1066_0" depart="27096.00" from="3548" to="108" type="car" />
    <trip id="670_0" depart="27103.00" from="2695" to="2663" type="car" />
    <trip id="1312_0" depart="27105.00" from="1438" to="916" type="car" />
    <trip id="283_0" depart="27112.00" from="1723" to="2225" type="car" />
    <trip id="1351_0" depart="27138.00" from="4675" to="2691" type="car" />
    <trip id="513_0" depart="27161.00" from="2136" to="1686" type="car" />
    <trip id="1733_0" depart="27162.00" from="1383" to="2209" type="car" />
    <trip id="1756_0" depart="27176.00" from="1251" to="3870" type="car" />
    <trip id="1425_0" depart="27177.00" from="4523" to="347" type="car" />
    <trip id="2381_0" depart="27178.00" from="1582" to="4183" type="car" />
    <trip id="2243_0" depart="27186.00" from="1456" to="3986" type="car" />
    <trip id="881_0" depart="27203.00" from="2016" to="1662" type="car" />
    <trip id="2400_0" depart="27212.00" from="2567" to="527" type="car" />
    <trip id="2354_0" depart="27217.00" from="80" to="381" type="car" />
    <trip id="816_0" depart="27217.00" from="4465" to="2377" type="car" />
    <trip id="696_0" depart="27238.00" from="487" to="2099" type="car" />
    <trip id="534_0" depart="27239.00" from="1877" to="4920" type="car" />
    <trip id="853_0" depart="27239.00" from="3493" to="1601" type="car" />
    <trip id="1646_0" depart="27245.00" from="759" to="4012" type="car" />
    <trip id="1049_0" depart="27264.00" from="3111" to="4504" type="car" />
    <trip id="2065_0" depart="27269.00" from="2712" to="1462" type="car" />
    <trip id="391_0" depart="27270.00" from="1350" to="3734" type="car" />
    <trip id="1006_0" depart="27282.00" from="3969" to="2951" type="car" />
    <trip id="713_0" depart="27284.00" from="3552" to="5012" type="car" />
    <trip id="1288_0" depart="27286.00" from="1310" to="229" type="car" />
    <trip id="1564_0" depart="27311.00" from="3174" to="1527" type="car" />
    <trip id="1102_0" depart="27313.00" from="1864" to="1516" type="car" />
    <trip id="1714_0" depart="27313.00" from="1219" to="56" type="car" />
    <trip id="1209_0" depart="27318.00" from="330" to="3942" type="car" />
    <trip id="1451_0" depart="27322.00" from="1441" to="2549" type="car" />
    <trip id="1119_0" depart="27337.00" from="4442" to="411" type="car" />
    <trip id="1378_0" depart="27350.00" from="3980" to="1177" type="car" />
    <trip id="1613_0" depart="27360.00" from="5012" to="4930" type="car" />
    <trip id="613_0" depart="27363.00" from="4005" to="5101" type="car" />
    <trip id="1724_0" depart="27369.00" from="1177" to="1514" type="car" />
    <trip id="818_0" depart="27369.00" from="2532" to="3395" type="car" />
    <trip id="659_0" depart="27370.00" from="2599" to="327" type="car" />
    <trip id="2252_0" depart="27381.00" from="3958" to="423" type="car" />
    <trip id="689_0" depart="27387.00" from="667" to="4709" type="car" />
    <trip id="1077_0" depart="27388.00" from="230" to="3537" type="car" />
    <trip id="2358_0" depart="27398.00" from="1642" to="5197" type="car" />
    <trip id="2308_0" depart="27409.00" from="5053" to="3069" type="car" />
    <trip id="2119_0" depart="27410.00" from="1397" to="4754" type="car" />
    <trip id="1812_0" depart="27422.00" from="2195" to="685" type="car" />
    <trip id="1771_0" depart="27424.00" from="695" to="2367" type="car" />
    <trip id="577_0" depart="27425.00" from="731" to="3170" type="car" />
    <trip id="397_0" depart="27443.00" from="1746" to="4048" type="car" />
    <trip id="1544_0" depart="27451.00" from="4234" to="2459" type="car" />
    <trip id="2078_0" depart="27452.00" from="1639" to="2507" type="car" />
    <trip id="808_0" depart="27456.00" from="2296" to="4982" type="car" />
    <trip id="1731_0" depart="27466.00" from="2136" to="3332" type="car" />
    <trip id="1293_0" depart="27468.00" from="2065" to="3244" type="car" />
    <trip id="2429_0" depart="27476.00" from="1832" to="4467" type="car" />
    <trip id="1009_0" depart="27514.00" from="4032" to="4943" type="car" />
    <trip id="916_0" depart="27514.00" from="1245" to="696" type="car" />
    <trip id="1560_0" depart="27523.00" from="543" to="3128" type="car" />
    <trip id="2436_0" depart="27523.00" from="2308" to="583" type="car" />
    <trip id="832_0" depart="27523.00" from="66" to="3433" type="car" />
    <trip id="1308_0" depart="27536.00" from="2137" to="4690" type="car" />
    <trip id="1650_0" depart="27541.00" from="2347" to="230" type="car" />
    <trip id="167_0" depart="27565.00" from="1825" to="1159" type="car" />
    <trip id="2465_0" depart="27580.00" from="1771" to="1062" type="car" />
    <trip id="305_0" depart="27587.00" from="678" to="3475" type="car" />
    <trip id="1857_0" depart="27594.00" from="4964" to="4343" type="car" />
    <trip id="2367_0" depart="27609.00" from="2904" to="811" type="car" />
    <trip id="797_0" depart="27609.00" from="513" to="2217" type="car" />
    <trip id="779_0" depart="27620.00" from="4914" to="1197" type="car" />
    <trip id="1810_0" depart="27621.00" from="5036" to="2206" type="car" />
    <trip id="997_0" depart="27624.00" from="3346" to="819" type="car" />
    <trip id="850_0" depart="27626.00" from="4920" to="4914" type="car" />
    <trip id="240_0" depart="27629.00" from="2390" to="5002" type="car" />
    <trip id="409_0" depart="27630.00" from="4197" to="4742" type="car" />
    <trip id="1367_0" depart="27639.00" from="683" to="3757" type="car" />
    <trip id="1174_0" depart="27643.00" from="3730" to="4605" type="car" />
    <trip id="1089_0" depart="27644.00" from="949" to="1455" type="car" />
    <trip id="1323_0" depart="27658.00" from="868" to="907" type="car" />
    <trip id="2039_0" depart="27661.00" from="3241" to="582" type="car" />
    <trip id="2377_0" depart="27665.00" from="3737" to="3969" type="car" />
    <trip id="1975_0" depart="27674.00" from="5169" to="4114" type="car" />
    <trip id="1212_0" depart="27682.00" from="1430" to="4977" type="car" />
    <trip id="302_0" depart="27683.00" from="3360" to="2240" type="car" />
    <trip id="421_0" depart="27710.00" from="1730" to="3020" type="car" />
    <trip id="323_0" depart="27728.00" from="3387" to="560" type="car" />
    <trip id="1510_0" depart="27735.00" from="1566" to="1183" type="car" />
    <trip id="875_0" depart="27743.00" from="2438" to="4185" type="car" />
    <trip id="985_0" depart="27767.00" from="2618" to="2198" type="car" />
    <trip id="1784_0" depart="27772.00" from="3190" to="4631" type="car" />
    <trip id="2469_0" depart="27795.00" from="3017" to="2283" type="car" />
    <trip id="601_0" depart="27801.00" from="385" to="2135" type="car" />
    <trip id="1678_0" depart="27813.00" from="275" to="4567" type="car" />
    <trip id="1740_0" depart="27814.00" from="3113" to="87" type="car" />
    <trip id="811_0" depart="27820.00" from="963" to="136" type="car" />
    <trip id="1123_0" depart="27840.00" from="2676" to="1755" type="car" />
    <trip id="1722_0" depart="27842.00" from="498" to="320" type="car" />
    <trip id="1956_0" depart="27842.00" from="789" to="4600" type="car" />
    <trip id="807_0" depart="27845.00" from="1487" to="1702" type="car" />
    <trip id="1920_0" depart="27856.00" from="2897" to="1305" type="car" />
    <trip id="2410_0" depart="27858.00" from="829" to="831" type="car" />
    <trip id="2296_0" depart="27862.00" from="1816" to="829" type="car" />
    <trip id="2467_0" depart="27873.00" from="115" to="243" type="car" />
    <trip id="1488_0" depart="27905.00" from="2179" to="3210" type="car" />
    <trip id="1885_0" depart="27920.00" from="14" to="3276" type="car" />
    <trip id="912_0" depart="27926.00" from="1556" to="2346" type="car" />
    <trip id="1973_0" depart="27931.00" from="2999" to="1169" type="car" />
    <trip id="2189_0" depart="27944.00" from="47" to="2577" type="car" />
    <trip id="26_0" depart="27946.00" from="4436" to="3560" type="car" />
    <trip id="1441_0" depart="27965.00" from="1959" to="3514" type="car" />
    <trip id="2261_0" depart="27971.00" from="5031" to="763" type="car" />
    <trip id="1856_0" depart="27980.00" from="2922" to="4757" type="car" />
    <trip id="68_0" depart="27989.00" from="3497" to="5188" type="car" />
    <trip id="2438_0" depart="27992.00" from="1720" to="3455" type="car" />
    <trip id="2045_0" depart="27997.00" from="5010" to="2708" type="car" />
    <trip id="1583_0" depart="28001.00" from="4969" to="796" type="car" />
    <trip id="2093_0" depart="28010.00" from="4599" to="2357" type="car" />
    <trip id="752_0" depart="28013.00" from="1347" to="56" type="car" />
    <trip id="1292_0" depart="28023.00" from="147" to="195" type="car" />
    <trip id="2026_0" depart="28034.00" from="5196" to="2588" type="car" />
    <trip id="2089_0" depart="28046.00" from="2363" to="4574" type="car" />
    <trip id="867_0" depart="28046.00" from="4093" to="4897" type="car" />
    <trip id="394_0" depart="28047.00" from="4813" to="3636" type="car" />
    <trip id="2305_0" depart="28062.00" from="2173" to="3547" type="car" />
    <trip id="1347_0" depart="28063.00" from="4724" to="5172" type="car" />
    <trip id="2360_0" depart="28072.00" from="4406" to="3310" type="car" />
    <trip id="1807_0" depart="28076.00" from="149" to="4640" type="car" />
    <trip id="933_0" depart="28082.00" from="2456" to="1826" type="car" />
    <trip id="1505_0" depart="28093.00" from="5012" to="4280" type="car" />
    <trip id="75_0" depart="28102.00" from="921" to="3616" type="car" />
    <trip id="461_0" depart="28105.00" from="4379" to="3173" type="car" />
    <trip id="1094_0" depart="28109.00" from="5003" to="2690" type="car" />
    <trip id="2212_0" depart="28112.00" from="5074" to="2356" type="car" />
    <trip id="2138_0" depart="28114.00" from="814" to="2379" type="car" />
    <trip id="2197_0" depart="28115.00" from="2022" to="2050" type="car" />
    <trip id="227_0" depart="28122.00" from="76" to="3696" type="car" />
    <trip id="267_0" depart="28130.00" from="2571" to="1323" type="car" />
    <trip id="1154_0" depart="28144.00" from="1225" to="1823" type="car" />
    <trip id="1993_0" depart="28148.00" from="1961" to="4440" type="car" />
    <trip id="2001_0" depart="28159.00" from="742" to="1962" type="car" />
    <trip id="2314_0" depart="28159.00" from="1722" to="4568" type="car" />
    <trip id="2038_0" depart="28169.00" from="4880" to="86" type="car" />
    <trip id="1054_0" depart="28181.00" from="3407" to="63" type="car" />
    <trip id="2239_0" depart="28182.00" from="1546" to="3335" type="car" />
    <trip id="2351_0" depart="28207.00" from="821" to="1065" type="car" />
    <trip id="538_0" depart="28208.00" from="5024" to="3327" type="car" />
    <trip id="1233_0" depart="28215.00" from="4959" to="5044" type="car" />
    <trip id="719_0" depart="28216.00" from="761" to="364" type="car" />
    <trip id="1122_0" depart="28222.00" from="701" to="578" type="car" />
    <trip id="332_0" depart="28231.00" from="1287" to="4923" type="car" />
    <trip id="1513_0" depart="28232.00" from="5171" to="3638" type="car" />
    <trip id="44_0" depart="28239.00" from="4026" to="3262" type="car" />
    <trip id="1453_0" depart="28241.00" from="2128" to="1920" type="car" />
    <trip id="556_0" depart="28242.00" from="230" to="487" type="car" />
    <trip id="1402_0" depart="28254.00" from="822" to="4646" type="car" />
    <trip id="1752_0" depart="28257.00" from="4927" to="2359" type="car" />
    <trip id="2356_0" depart="28260.00" from="924" to="3629" type="car" />
    <trip id="692_0" depart="28262.00" from="2131" to="2730" type="car" />
    <trip id="911_0" depart="28263.00" from="1017" to="584" type="car" />
    <trip id="417_0" depart="28274.00" from="1842" to="4086" type="car" />
    <trip id="1158_0" depart="28280.00" from="2677" to="2388" type="car" />
    <trip id="1517_0" depart="28282.00" from="3423" to="3468" type="car" />
    <trip id="1654_0" depart="28286.00" from="1603" to="4743" type="car" />
    <trip id="1201_0" depart="28288.00" from="1148" to="4498" type="car" />
    <trip id="1727_0" depart="28288.00" from="1804" to="2440" type="car" />
    <trip id="1082_0" depart="28298.00" from="1507" to="2107" type="car" />
    <trip id="2450_0" depart="28306.00" from="118" to="1388" type="car" />
    <trip id="2428_0" depart="28310.00" from="4390" to="2731" type="car" />
    <trip id="767_0" depart="28322.00" from="4386" to="2372" type="car" />
    <trip id="1500_0" depart="28328.00" from="4443" to="1445" type="car" />
    <trip id="2136_0" depart="28337.00" from="3568" to="3507" type="car" />
    <trip id="1579_0" depart="28343.00" from="959" to="2236" type="car" />
    <trip id="1267_0" depart="28376.00" from="2599" to="893" type="car" />
    <trip id="803_0" depart="28377.00" from="3081" to="5114" type="car" />
    <trip id="2079_0" depart="28380.00" from="2546" to="4408" type="car" />
    <trip id="343_0" depart="28382.00" from="4188" to="862" type="car" />
    <trip id="2084_0" depart="28384.00" from="3361" to="3601" type="car" />
    <trip id="319_0" depart="28384.00" from="3074" to="145" type="car" />
    <trip id="19_0" depart="28386.00" from="3505" to="4409" type="car" />
    <trip id="1461_0" depart="28394.00" from="4813" to="2956" type="car" />
    <trip id="502_0" depart="28397.00" from="4086" to="2212" type="car" />
    <trip id="1213_0" depart="28404.00" from="2018" to="4518" type="car" />
    <trip id="2214_0" depart="28424.00" from="1768" to="3029" type="car" />
    <trip id="1978_0" depart="28440.00" from="4618" to="684" type="car" />
    <trip id="2207_0" depart="28445.00" from="3636" to="2101" type="car" />
    <trip id="218_0" depart="28452.00" from="3810" to="4371" type="car" />
    <trip id="862_0" depart="28459.00" from="146" to="4776" type="car" />
    <trip id="208_0" depart="28465.00" from="4272" to="3568" type="car" />
    <trip id="1040_0" depart="28467.00" from="2063" to="1339" type="car" />
    <trip id="351_0" depart="28473.00" from="1731" to="4705" type="car" />
    <trip id="86_0" depart="28473.00" from="1349" to="5035" type="car" />
    <trip id="2353_0" depart="28477.00" from="5002" to="4143" type="car" />
    <trip id="1114_0" depart="28479.00" from="4683" to="4404" type="car" />
    <trip id="1532_0" depart="28483.00" from="1868" to="4932" type="car" />
    <trip id="55_0" depart="28497.00" from="1096" to="756" type="car" />
    <trip id="806_0" depart="28523.00" from="829" to="4736" type="car" />
    <trip id="1890_0" depart="28529.00" from="943" to="5203" type="car" />
    <trip id="256_0" depart="28533.00" from="1437" to="959" type="car" />
    <trip id="1143_0" depart="28537.00" from="2393" to="4184" type="car" />
    <trip id="527_0" depart="28537.00" from="4691" to="549" type="car" />
    <trip id="2213_0" depart="28546.00" from="4442" to="2589" type="car" />
    <trip id="1691_0" depart="28551.00" from="1815" to="2164" type="car" />
    <trip id="192_0" depart="28552.00" from="3197" to="4696" type="car" />
    <trip id="653_0" depart="28553.00" from="1072" to="4385" type="car" />
    <trip id="1699_0" depart="28554.00" from="4878" to="1712" type="car" />
    <trip id="1611_0" depart="28555.00" from="1737" to="4716" type="car" />
    <trip id="1643_0" depart="28561.00" from="1736" to="1643" type="car" />
    <trip id="1243_0" depart="28564.00" from="4589" to="97" type="car" />
    <trip id="1656_0" depart="28568.00" from="788" to="1592" type="car" />
    <trip id="2386_0" depart="28573.00" from="4162" to="1707" type="car" />
    <trip id="2013_0" depart="28574.00" from="23" to="4033" type="car" />
    <trip id="238_0" depart="28574.00" from="1879" to="2060" type="car" />
    <trip id="158_0" depart="28585.00" from="682" to="3537" type="car" />
    <trip id="1757_0" depart="28588.00" from="1575" to="1083" type="car" />
    <trip id="524_0" depart="28588.00" from="1171" to="5129" type="car" />
    <trip id="1647_0" depart="28593.00" from="2446" to="1606" type="car" />
    <trip id="2297_0" depart="28597.00" from="2059" to="2187" type="car" />
    <trip id="794_0" depart="28598.00" from="1215" to="233" type="car" />
    <trip id="1309_0" depart="28600.00" from="1241" to="273" type="car" />
    <trip id="475_0" depart="28601.00" from="1392" to="1890" type="car" />
    <trip id="2387_0" depart="28606.00" from="2167" to="3610" type="car" />
    <trip id="2172_0" depart="28609.00" from="1428" to="2365" type="car" />
    <trip id="661_0" depart="28612.00" from="1802" to="5182" type="car" />
    <trip id="1815_0" depart="28618.00" from="1247" to="4527" type="car" />
    <trip id="2116_0" depart="28623.00" from="2922" to="2899" type="car" />
    <trip id="1281_0" depart="28634.00" from="1220" to="2485" type="car" />
    <trip id="64_0" depart="28636.00" from="1674" to="4374" type="car" />
    <trip id="1322_0" depart="28640.00" from="2193" to="4626" type="car" />
    <trip id="704_0" depart="28641.00" from="618" to="4769" type="car" />
    <trip id="197_0" depart="28643.00" from="3177" to="3619" type="car" />
    <trip id="568_0" depart="28650.00" from="498" to="930" type="car" />
    <trip id="1539_0" depart="28659.00" from="328" to="5009" type="car" />
    <trip id="2210_0" depart="28674.00" from="1894" to="3272" type="car" />
    <trip id="2376_0" depart="28676.00" from="1145" to="1212" type="car" />
    <trip id="948_0" depart="28687.00" from="3842" to="1653" type="car" />
    <trip id="594_0" depart="28699.00" from="1859" to="61" type="car" />
    <trip id="2141_0" depart="28703.00" from="739" to="4445" type="car" />
    <trip id="163_0" depart="28712.00" from="1393" to="2223" type="car" />
    <trip id="310_0" depart="28718.00" from="310" to="858" type="car" />
    <trip id="1398_0" depart="28720.00" from="4431" to="5117" type="car" />
    <trip id="74_0" depart="28723.00" from="1612" to="3985" type="car" />