<additional xmlns:xsi="http://www.w3.org/2001/XMLSchema-instance" xsi:noNamespaceSchemaLocation="http://sumo.dlr.de/xsd/additional_file.xsd">
    
    
<laneAreaDetector id="e2_0" lane="1_0" pos="00.00" length="52.00" file="e2_5000.xml">
</laneAreaDetector><laneAreaDetector id="e2_1" lane="10_0" pos="00.00" length="7.00" file="e2_5000.xml">
</laneAreaDetector><laneAreaDetector id="e2_2" lane="100_0" pos="00.00" length="49.00" file="e2_5000.xml">
</laneAreaDetector><laneAreaDetector id="e2_3" lane="1000_0" pos="00.00" length="7.00" file="e2_5000.xml">
</laneAreaDetector><laneAreaDetector id="e2_4" lane="1001_0" pos="00.00" length="9.00" file="e2_5000.xml">
</laneAreaDetector><laneAreaDetector id="e2_5" lane="1002_0" pos="00.00" length="9.00" file="e2_5000.xml">
</laneAreaDetector><laneAreaDetector id="e2_6" lane="1003_0" pos="00.00" length="5.00" file="e2_5000.xml">
</laneAreaDetector><laneAreaDetector id="e2_7" lane="1004_0" pos="00.00" length="5.00" file="e2_5000.xml">
</laneAreaDetector><laneAreaDetector id="e2_8" lane="1005_0" pos="00.00" length="5.00" file="e2_5000.xml">
</laneAreaDetector><laneAreaDetector id="e2_9" lane="1006_0" pos="00.00" length="5.00" file="e2_5000.xml">
</laneAreaDetector><laneAreaDetector id="e2_10" lane="1007_0" pos="00.00" length="5.00" file="e2_5000.xml">
</laneAreaDetector><laneAreaDetector id="e2_11" lane="1008_0" pos="00.00" length="5.00" file="e2_5000.xml">
</laneAreaDetector><laneAreaDetector id="e2_12" lane="1009_0" pos="00.00" length="2.00" file="e2_5000.xml">
</laneAreaDetector><laneAreaDetector id="e2_13" lane="101_0" pos="00.00" length="49.00" file="e2_5000.xml">
</laneAreaDetector><laneAreaDetector id="e2_14" lane="1010_0" pos="00.00" length="2.00" file="e2_5000.xml">
</laneAreaDetector><laneAreaDetector id="e2_15" lane="1011_0" pos="00.00" length="2.00" file="e2_5000.xml">
</laneAreaDetector><laneAreaDetector id="e2_16" lane="1012_0" pos="00.00" length="2.00" file="e2_5000.xml">
</laneAreaDetector><laneAreaDetector id="e2_17" lane="1013_0" pos="00.00" length="3.00" file="e2_5000.xml">
</laneAreaDetector><laneAreaDetector id="e2_18" lane="1014_0" pos="00.00" length="3.00" file="e2_5000.xml">
</laneAreaDetector><laneAreaDetector id="e2_19" lane="1015_0" pos="00.00" length="25.00" file="e2_5000.xml">
</laneAreaDetector><laneAreaDetector id="e2_20" lane="1016_0" pos="00.00" length="25.00" file="e2_5000.xml">
</laneAreaDetector><laneAreaDetector id="e2_21" lane="1017_0" pos="00.00" length="42.00" file="e2_5000.xml">
</laneAreaDetector><laneAreaDetector id="e2_22" lane="1018_0" pos="00.00" length="42.00" file="e2_5000.xml">
</laneAreaDetector><laneAreaDetector id="e2_23" lane="1019_0" pos="00.00" length="3.00" file="e2_5000.xml">
</laneAreaDetector><laneAreaDetector id="e2_24" lane="102_0" pos="00.00" length="4.00" file="e2_5000.xml">
</laneAreaDetector><laneAreaDetector id="e2_25" lane="1020_0" pos="00.00" length="3.00" file="e2_5000.xml">
</laneAreaDetector><laneAreaDetector id="e2_26" lane="1021_0" pos="00.00" length="12.00" file="e2_5000.xml">
</laneAreaDetector><laneAreaDetector id="e2_27" lane="1022_0" pos="00.00" length="12.00" file="e2_5000.xml">
</laneAreaDetector><laneAreaDetector id="e2_28" lane="1023_0" pos="00.00" length="7.00" file="e2_5000.xml">
</laneAreaDetector><laneAreaDetector id="e2_29" lane="1024_0" pos="00.00" length="96.00" file="e2_5000.xml">
</laneAreaDetector><laneAreaDetector id="e2_30" lane="1025_0" pos="00.00" length="96.00" file="e2_5000.xml">
</laneAreaDetector><laneAreaDetector id="e2_31" lane="1026_0" pos="00.00" length="20.00" file="e2_5000.xml">
</laneAreaDetector><laneAreaDetector id="e2_32" lane="1027_0" pos="00.00" length="2.00" file="e2_5000.xml">
</laneAreaDetector><laneAreaDetector id="e2_33" lane="1028_0" pos="00.00" length="2.00" file="e2_5000.xml">
</laneAreaDetector><laneAreaDetector id="e2_34" lane="1029_0" pos="00.00" length="5.00" file="e2_5000.xml">
</laneAreaDetector><laneAreaDetector id="e2_35" lane="103_0" pos="00.00" length="4.00" file="e2_5000.xml">
</laneAreaDetector><laneAreaDetector id="e2_36" lane="1030_0" pos="00.00" length="6.00" file="e2_5000.xml">
</laneAreaDetector><laneAreaDetector id="e2_37" lane="1031_0" pos="00.00" length="5.00" file="e2_5000.xml">
</laneAreaDetector><laneAreaDetector id="e2_38" lane="1032_0" pos="00.00" length="12.00" file="e2_5000.xml">
</laneAreaDetector><laneAreaDetector id="e2_39" lane="1033_0" pos="00.00" length="2.00" file="e2_5000.xml">
</laneAreaDetector><laneAreaDetector id="e2_40" lane="1034_0" pos="00.00" length="28.00" file="e2_5000.xml">
</laneAreaDetector><laneAreaDetector id="e2_41" lane="1035_0" pos="00.00" length="14.00" file="e2_5000.xml">
</laneAreaDetector><laneAreaDetector id="e2_42" lane="1036_0" pos="00.00" length="5.00" file="e2_5000.xml">
</laneAreaDetector><laneAreaDetector id="e2_43" lane="1037_0" pos="00.00" length="3.00" file="e2_5000.xml">
</laneAreaDetector><laneAreaDetector id="e2_44" lane="1038_0" pos="00.00" length="4.00" file="e2_5000.xml">
</laneAreaDetector><laneAreaDetector id="e2_45" lane="1039_0" pos="00.00" length="4.00" file="e2_5000.xml">
</laneAreaDetector><laneAreaDetector id="e2_46" lane="104_0" pos="00.00" length="2.00" file="e2_5000.xml">
</laneAreaDetector><laneAreaDetector id="e2_47" lane="1040_0" pos="00.00" length="4.00" file="e2_5000.xml">
</laneAreaDetector><laneAreaDetector id="e2_48" lane="1041_0" pos="00.00" length="3.00" file="e2_5000.xml">
</laneAreaDetector><laneAreaDetector id="e2_49" lane="1042_0" pos="00.00" length="2.00" file="e2_5000.xml">
</laneAreaDetector><laneAreaDetector id="e2_50" lane="1043_0" pos="00.00" length="2.00" file="e2_5000.xml">
</laneAreaDetector><laneAreaDetector id="e2_51" lane="1044_0" pos="00.00" length="3.00" file="e2_5000.xml">
</laneAreaDetector><laneAreaDetector id="e2_52" lane="1045_0" pos="00.00" length="3.00" file="e2_5000.xml">
</laneAreaDetector><laneAreaDetector id="e2_53" lane="1046_0" pos="00.00" length="4.00" file="e2_5000.xml">
</laneAreaDetector><laneAreaDetector id="e2_54" lane="1047_0" pos="00.00" length="4.00" file="e2_5000.xml">
</laneAreaDetector><laneAreaDetector id="e2_55" lane="1048_0" pos="00.00" length="2.00" file="e2_5000.xml">
</laneAreaDetector><laneAreaDetector id="e2_56" lane="1049_0" pos="00.00" length="2.00" file="e2_5000.xml">
</laneAreaDetector><laneAreaDetector id="e2_57" lane="105_0" pos="00.00" length="2.00" file="e2_5000.xml">
</laneAreaDetector><laneAreaDetector id="e2_58" lane="1050_0" pos="00.00" length="60.00" file="e2_5000.xml">
</laneAreaDetector><laneAreaDetector id="e2_59" lane="1051_0" pos="00.00" length="60.00" file="e2_5000.xml">
</laneAreaDetector><laneAreaDetector id="e2_60" lane="1052_0" pos="00.00" length="26.00" file="e2_5000.xml">
</laneAreaDetector><laneAreaDetector id="e2_61" lane="1053_0" pos="00.00" length="26.00" file="e2_5000.xml">
</laneAreaDetector><laneAreaDetector id="e2_62" lane="1054_0" pos="00.00" length="6.00" file="e2_5000.xml">
</laneAreaDetector><laneAreaDetector id="e2_63" lane="1055_0" pos="00.00" length="6.00" file="e2_5000.xml">
</laneAreaDetector><laneAreaDetector id="e2_64" lane="1056_0" pos="00.00" length="6.00" file="e2_5000.xml">
</laneAreaDetector><laneAreaDetector id="e2_65" lane="1057_0" pos="00.00" length="6.00" file="e2_5000.xml">
</laneAreaDetector><laneAreaDetector id="e2_66" lane="1058_0" pos="00.00" length="69.00" file="e2_5000.xml">
</laneAreaDetector><laneAreaDetector id="e2_67" lane="1059_0" pos="00.00" length="69.00" file="e2_5000.xml">
</laneAreaDetector><laneAreaDetector id="e2_68" lane="106_0" pos="00.00" length="2.00" file="e2_5000.xml">
</laneAreaDetector><laneAreaDetector id="e2_69" lane="1060_0" pos="00.00" length="5.00" file="e2_5000.xml">
</laneAreaDetector><laneAreaDetector id="e2_70" lane="1061_0" pos="00.00" length="5.00" file="e2_5000.xml">
</laneAreaDetector><laneAreaDetector id="e2_71" lane="1062_0" pos="00.00" length="4.00" file="e2_5000.xml">
</laneAreaDetector><laneAreaDetector id="e2_72" lane="1063_0" pos="00.00" length="4.00" file="e2_5000.xml">
</laneAreaDetector><laneAreaDetector id="e2_73" lane="1064_0" pos="00.00" length="3.00" file="e2_5000.xml">
</laneAreaDetector><laneAreaDetector id="e2_74" lane="1065_0" pos="00.00" length="4.00" file="e2_5000.xml">
</laneAreaDetector><laneAreaDetector id="e2_75" lane="1066_0" pos="00.00" length="26.00" file="e2_5000.xml">
</laneAreaDetector><laneAreaDetector id="e2_76" lane="1067_0" pos="00.00" length="26.00" file="e2_5000.xml">
</laneAreaDetector><laneAreaDetector id="e2_77" lane="1068_0" pos="00.00" length="15.00" file="e2_5000.xml">
</laneAreaDetector><laneAreaDetector id="e2_78" lane="1069_0" pos="00.00" length="15.00" file="e2_5000.xml">
</laneAreaDetector><laneAreaDetector id="e2_79" lane="107_0" pos="00.00" length="2.00" file="e2_5000.xml">
</laneAreaDetector><laneAreaDetector id="e2_80" lane="1070_0" pos="00.00" length="92.00" file="e2_5000.xml">
</laneAreaDetector><laneAreaDetector id="e2_81" lane="1071_0" pos="00.00" length="92.00" file="e2_5000.xml">
</laneAreaDetector><laneAreaDetector id="e2_82" lane="1072_0" pos="00.00" length="12.00" file="e2_5000.xml">
</laneAreaDetector><laneAreaDetector id="e2_83" lane="1073_0" pos="00.00" length="12.00" file="e2_5000.xml">
</laneAreaDetector><laneAreaDetector id="e2_84" lane="1074_0" pos="00.00" length="7.00" file="e2_5000.xml">
</laneAreaDetector><laneAreaDetector id="e2_85" lane="1075_0" pos="00.00" length="7.00" file="e2_5000.xml">
</laneAreaDetector><laneAreaDetector id="e2_86" lane="1076_0" pos="00.00" length="23.00" file="e2_5000.xml">
</laneAreaDetector><laneAreaDetector id="e2_87" lane="1077_0" pos="00.00" length="57.00" file="e2_5000.xml">
</laneAreaDetector><laneAreaDetector id="e2_88" lane="1078_0" pos="00.00" length="56.00" file="e2_5000.xml">
</laneAreaDetector><laneAreaDetector id="e2_89" lane="1079_0" pos="00.00" length="23.00" file="e2_5000.xml">
</laneAreaDetector><laneAreaDetector id="e2_90" lane="108_0" pos="00.00" length="13.00" file="e2_5000.xml">
</laneAreaDetector><laneAreaDetector id="e2_91" lane="1080_0" pos="00.00" length="2.00" file="e2_5000.xml">
</laneAreaDetector><laneAreaDetector id="e2_92" lane="1081_0" pos="00.00" length="3.00" file="e2_5000.xml">
</laneAreaDetector><laneAreaDetector id="e2_93" lane="1082_0" pos="00.00" length="4.00" file="e2_5000.xml">
</laneAreaDetector><laneAreaDetector id="e2_94" lane="1083_0" pos="00.00" length="4.00" file="e2_5000.xml">
</laneAreaDetector><laneAreaDetector id="e2_95" lane="1084_0" pos="00.00" length="9.00" file="e2_5000.xml">
</laneAreaDetector><laneAreaDetector id="e2_96" lane="1085_0" pos="00.00" length="126.00" file="e2_5000.xml">
</laneAreaDetector><laneAreaDetector id="e2_97" lane="1086_0" pos="00.00" length="21.00" file="e2_5000.xml">
</laneAreaDetector><laneAreaDetector id="e2_98" lane="1087_0" pos="00.00" length="7.00" file="e2_5000.xml">
</laneAreaDetector><laneAreaDetector id="e2_99" lane="1088_0" pos="00.00" length="2.00" file="e2_5000.xml">
</laneAreaDetector><laneAreaDetector id="e2_100" lane="1089_0" pos="00.00" length="3.00" file="e2_5000.xml">
</laneAreaDetector><laneAreaDetector id="e2_101" lane="109_0" pos="00.00" length="13.00" file="e2_5000.xml">
</laneAreaDetector><laneAreaDetector id="e2_102" lane="1090_0" pos="00.00" length="17.00" file="e2_5000.xml">
</laneAreaDetector><laneAreaDetector id="e2_103" lane="1091_0" pos="00.00" length="2.00" file="e2_5000.xml">
</laneAreaDetector><laneAreaDetector id="e2_104" lane="1092_0" pos="00.00" length="2.00" file="e2_5000.xml">
</laneAreaDetector><laneAreaDetector id="e2_105" lane="1093_0" pos="00.00" length="2.00" file="e2_5000.xml">
</laneAreaDetector><laneAreaDetector id="e2_106" lane="1094_0" pos="00.00" length="2.00" file="e2_5000.xml">
</laneAreaDetector><laneAreaDetector id="e2_107" lane="1095_0" pos="00.00" length="2.00" file="e2_5000.xml">
</laneAreaDetector><laneAreaDetector id="e2_108" lane="1096_0" pos="00.00" length="2.00" file="e2_5000.xml">
</laneAreaDetector><laneAreaDetector id="e2_109" lane="1097_0" pos="00.00" length="4.00" file="e2_5000.xml">
</laneAreaDetector><laneAreaDetector id="e2_110" lane="1098_0" pos="00.00" length="31.00" file="e2_5000.xml">
</laneAreaDetector><laneAreaDetector id="e2_111" lane="1099_0" pos="00.00" length="50.00" file="e2_5000.xml">
</laneAreaDetector><laneAreaDetector id="e2_112" lane="11_0" pos="00.00" length="2.00" file="e2_5000.xml">
</laneAreaDetector><laneAreaDetector id="e2_113" lane="110_0" pos="00.00" length="21.00" file="e2_5000.xml">
</laneAreaDetector><laneAreaDetector id="e2_114" lane="1100_0" pos="00.00" length="2.00" file="e2_5000.xml">
</laneAreaDetector><laneAreaDetector id="e2_115" lane="1101_0" pos="00.00" length="7.00" file="e2_5000.xml">
</laneAreaDetector><laneAreaDetector id="e2_117" lane="1103_0" pos="00.00" length="2.00" file="e2_5000.xml">
</laneAreaDetector><laneAreaDetector id="e2_118" lane="1104_0" pos="00.00" length="3.00" file="e2_5000.xml">
</laneAreaDetector><laneAreaDetector id="e2_119" lane="1105_0" pos="00.00" length="2.00" file="e2_5000.xml">
</laneAreaDetector><laneAreaDetector id="e2_120" lane="1106_0" pos="00.00" length="3.00" file="e2_5000.xml">
</laneAreaDetector><laneAreaDetector id="e2_121" lane="1107_0" pos="00.00" length="2.00" file="e2_5000.xml">
</laneAreaDetector><laneAreaDetector id="e2_122" lane="1108_0" pos="00.00" length="8.00" file="e2_5000.xml">
</laneAreaDetector><laneAreaDetector id="e2_123" lane="1109_0" pos="00.00" length="8.00" file="e2_5000.xml">
</laneAreaDetector><laneAreaDetector id="e2_124" lane="111_0" pos="00.00" length="21.00" file="e2_5000.xml">
</laneAreaDetector><laneAreaDetector id="e2_125" lane="1110_0" pos="00.00" length="8.00" file="e2_5000.xml">
</laneAreaDetector><laneAreaDetector id="e2_126" lane="1111_0" pos="00.00" length="5.00" file="e2_5000.xml">
</laneAreaDetector><laneAreaDetector id="e2_127" lane="1112_0" pos="00.00" length="3.00" file="e2_5000.xml">
</laneAreaDetector><laneAreaDetector id="e2_128" lane="1113_0" pos="00.00" length="3.00" file="e2_5000.xml">
</laneAreaDetector><laneAreaDetector id="e2_129" lane="1114_0" pos="00.00" length="5.00" file="e2_5000.xml">
</laneAreaDetector><laneAreaDetector id="e2_130" lane="1115_0" pos="00.00" length="4.00" file="e2_5000.xml">
</laneAreaDetector><laneAreaDetector id="e2_131" lane="1116_0" pos="00.00" length="19.00" file="e2_5000.xml">
</laneAreaDetector><laneAreaDetector id="e2_132" lane="1117_0" pos="00.00" length="40.00" file="e2_5000.xml">
</laneAreaDetector><laneAreaDetector id="e2_133" lane="1118_0" pos="00.00" length="57.00" file="e2_5000.xml">
</laneAreaDetector><laneAreaDetector id="e2_134" lane="1119_0" pos="00.00" length="2.00" file="e2_5000.xml">
</laneAreaDetector><laneAreaDetector id="e2_135" lane="112_0" pos="00.00" length="2.00" file="e2_5000.xml">
</laneAreaDetector><laneAreaDetector id="e2_136" lane="1120_0" pos="00.00" length="2.00" file="e2_5000.xml">
</laneAreaDetector><laneAreaDetector id="e2_137" lane="1121_0" pos="00.00" length="7.00" file="e2_5000.xml">
</laneAreaDetector><laneAreaDetector id="e2_138" lane="1122_0" pos="00.00" length="7.00" file="e2_5000.xml">
</laneAreaDetector><laneAreaDetector id="e2_139" lane="1123_0" pos="00.00" length="12.00" file="e2_5000.xml">
</laneAreaDetector><laneAreaDetector id="e2_140" lane="1124_0" pos="00.00" length="12.00" file="e2_5000.xml">
</laneAreaDetector><laneAreaDetector id="e2_141" lane="1125_0" pos="00.00" length="10.00" file="e2_5000.xml">
</laneAreaDetector><laneAreaDetector id="e2_142" lane="1126_0" pos="00.00" length="10.00" file="e2_5000.xml">
</laneAreaDetector><laneAreaDetector id="e2_143" lane="1127_0" pos="00.00" length="21.00" file="e2_5000.xml">
</laneAreaDetector><laneAreaDetector id="e2_144" lane="1128_0" pos="00.00" length="31.00" file="e2_5000.xml">
</laneAreaDetector><laneAreaDetector id="e2_145" lane="1129_0" pos="00.00" length="5.00" file="e2_5000.xml">
</laneAreaDetector><laneAreaDetector id="e2_146" lane="113_0" pos="00.00" length="2.00" file="e2_5000.xml">
</laneAreaDetector><laneAreaDetector id="e2_147" lane="1130_0" pos="00.00" length="83.00" file="e2_5000.xml">
</laneAreaDetector><laneAreaDetector id="e2_148" lane="1131_0" pos="00.00" length="83.00" file="e2_5000.xml">
</laneAreaDetector><laneAreaDetector id="e2_149" lane="1132_0" pos="00.00" length="96.00" file="e2_5000.xml">
</laneAreaDetector><laneAreaDetector id="e2_150" lane="1133_0" pos="00.00" length="96.00" file="e2_5000.xml">
</laneAreaDetector><laneAreaDetector id="e2_151" lane="1134_0" pos="00.00" length="150.00" file="e2_5000.xml">
</laneAreaDetector><laneAreaDetector id="e2_152" lane="1135_0" pos="00.00" length="150.00" file="e2_5000.xml">
</laneAreaDetector><laneAreaDetector id="e2_153" lane="1136_0" pos="00.00" length="41.00" file="e2_5000.xml">
</laneAreaDetector><laneAreaDetector id="e2_154" lane="1137_0" pos="00.00" length="41.00" file="e2_5000.xml">
</laneAreaDetector><laneAreaDetector id="e2_155" lane="1138_0" pos="00.00" length="21.00" file="e2_5000.xml">
</laneAreaDetector><laneAreaDetector id="e2_156" lane="1139_0" pos="00.00" length="2.00" file="e2_5000.xml">
</laneAreaDetector><laneAreaDetector id="e2_157" lane="114_0" pos="00.00" length="2.00" file="e2_5000.xml">
</laneAreaDetector><laneAreaDetector id="e2_158" lane="1140_0" pos="00.00" length="17.00" file="e2_5000.xml">
</laneAreaDetector><laneAreaDetector id="e2_159" lane="1141_0" pos="00.00" length="18.00" file="e2_5000.xml">
</laneAreaDetector><laneAreaDetector id="e2_160" lane="1142_0" pos="00.00" length="18.00" file="e2_5000.xml">
</laneAreaDetector><laneAreaDetector id="e2_161" lane="1143_0" pos="00.00" length="2.00" file="e2_5000.xml">
</laneAreaDetector><laneAreaDetector id="e2_162" lane="1144_0" pos="00.00" length="2.00" file="e2_5000.xml">
</laneAreaDetector><laneAreaDetector id="e2_163" lane="1145_0" pos="00.00" length="3.00" file="e2_5000.xml">
</laneAreaDetector><laneAreaDetector id="e2_164" lane="1146_0" pos="00.00" length="2.00" file="e2_5000.xml">
</laneAreaDetector><laneAreaDetector id="e2_165" lane="1147_0" pos="00.00" length="10.00" file="e2_5000.xml">
</laneAreaDetector><laneAreaDetector id="e2_166" lane="1148_0" pos="00.00" length="5.00" file="e2_5000.xml">
</laneAreaDetector><laneAreaDetector id="e2_167" lane="1149_0" pos="00.00" length="5.00" file="e2_5000.xml">
</laneAreaDetector><laneAreaDetector id="e2_168" lane="115_0" pos="00.00" length="2.00" file="e2_5000.xml">
</laneAreaDetector><laneAreaDetector id="e2_169" lane="1150_0" pos="00.00" length="6.00" file="e2_5000.xml">
</laneAreaDetector><laneAreaDetector id="e2_170" lane="1151_0" pos="00.00" length="70.00" file="e2_5000.xml">
</laneAreaDetector><laneAreaDetector id="e2_171" lane="1152_0" pos="00.00" length="13.00" file="e2_5000.xml">
</laneAreaDetector><laneAreaDetector id="e2_172" lane="1153_0" pos="00.00" length="2.00" file="e2_5000.xml">
</laneAreaDetector><laneAreaDetector id="e2_173" lane="1154_0" pos="00.00" length="2.00" file="e2_5000.xml">
</laneAreaDetector><laneAreaDetector id="e2_174" lane="1155_0" pos="00.00" length="11.00" file="e2_5000.xml">
</laneAreaDetector><laneAreaDetector id="e2_175" lane="1156_0" pos="00.00" length="11.00" file="e2_5000.xml">
</laneAreaDetector><laneAreaDetector id="e2_176" lane="1157_0" pos="00.00" length="6.00" file="e2_5000.xml">
</laneAreaDetector><laneAreaDetector id="e2_177" lane="1158_0" pos="00.00" length="2.00" file="e2_5000.xml">
</laneAreaDetector><laneAreaDetector id="e2_178" lane="1159_0" pos="00.00" length="2.00" file="e2_5000.xml">
</laneAreaDetector><laneAreaDetector id="e2_179" lane="116_0" pos="00.00" length="106.00" file="e2_5000.xml">
</laneAreaDetector><laneAreaDetector id="e2_180" lane="1160_0" pos="00.00" length="4.00" file="e2_5000.xml">
</laneAreaDetector><laneAreaDetector id="e2_181" lane="1161_0" pos="00.00" length="22.00" file="e2_5000.xml">
</laneAreaDetector><laneAreaDetector id="e2_182" lane="1162_0" pos="00.00" length="22.00" file="e2_5000.xml">
</laneAreaDetector><laneAreaDetector id="e2_183" lane="1163_0" pos="00.00" length="43.00" file="e2_5000.xml">
</laneAreaDetector><laneAreaDetector id="e2_184" lane="1164_0" pos="00.00" length="43.00" file="e2_5000.xml">
</laneAreaDetector><laneAreaDetector id="e2_185" lane="1165_0" pos="00.00" length="18.00" file="e2_5000.xml">
</laneAreaDetector><laneAreaDetector id="e2_186" lane="1166_0" pos="00.00" length="18.00" file="e2_5000.xml">
</laneAreaDetector><laneAreaDetector id="e2_187" lane="1167_0" pos="00.00" length="4.00" file="e2_5000.xml">
</laneAreaDetector><laneAreaDetector id="e2_188" lane="1168_0" pos="00.00" length="4.00" file="e2_5000.xml">
</laneAreaDetector><laneAreaDetector id="e2_189" lane="1169_0" pos="00.00" length="19.00" file="e2_5000.xml">
</laneAreaDetector><laneAreaDetector id="e2_190" lane="117_0" pos="00.00" length="106.00" file="e2_5000.xml">
</laneAreaDetector><laneAreaDetector id="e2_191" lane="1170_0" pos="00.00" length="19.00" file="e2_5000.xml">
</laneAreaDetector><laneAreaDetector id="e2_192" lane="1171_0" pos="00.00" length="2.00" file="e2_5000.xml">
</laneAreaDetector><laneAreaDetector id="e2_193" lane="1172_0" pos="00.00" length="2.00" file="e2_5000.xml">
</laneAreaDetector><laneAreaDetector id="e2_194" lane="1173_0" pos="00.00" length="36.00" file="e2_5000.xml">
</laneAreaDetector><laneAreaDetector id="e2_195" lane="1174_0" pos="00.00" length="36.00" file="e2_5000.xml">
</laneAreaDetector><laneAreaDetector id="e2_196" lane="1175_0" pos="00.00" length="46.00" file="e2_5000.xml">
</laneAreaDetector><laneAreaDetector id="e2_197" lane="1176_0" pos="00.00" length="46.00" file="e2_5000.xml">
</laneAreaDetector><laneAreaDetector id="e2_198" lane="1177_0" pos="00.00" length="5.00" file="e2_5000.xml">
</laneAreaDetector><laneAreaDetector id="e2_199" lane="1178_0" pos="00.00" length="5.00" file="e2_5000.xml">
</laneAreaDetector><laneAreaDetector id="e2_200" lane="1179_0" pos="00.00" length="20.00" file="e2_5000.xml">
</laneAreaDetector><laneAreaDetector id="e2_201" lane="118_0" pos="00.00" length="39.00" file="e2_5000.xml">
</laneAreaDetector><laneAreaDetector id="e2_202" lane="1180_0" pos="00.00" length="20.00" file="e2_5000.xml">
</laneAreaDetector><laneAreaDetector id="e2_203" lane="1181_0" pos="00.00" length="2.00" file="e2_5000.xml">
</laneAreaDetector><laneAreaDetector id="e2_204" lane="1182_0" pos="00.00" length="2.00" file="e2_5000.xml">
</laneAreaDetector><laneAreaDetector id="e2_205" lane="1183_0" pos="00.00" length="13.00" file="e2_5000.xml">
</laneAreaDetector><laneAreaDetector id="e2_206" lane="1184_0" pos="00.00" length="13.00" file="e2_5000.xml">
</laneAreaDetector><laneAreaDetector id="e2_207" lane="1185_0" pos="00.00" length="2.00" file="e2_5000.xml">
</laneAreaDetector><laneAreaDetector id="e2_208" lane="1186_0" pos="00.00" length="2.00" file="e2_5000.xml">
</laneAreaDetector><laneAreaDetector id="e2_209" lane="1187_0" pos="00.00" length="30.00" file="e2_5000.xml">
</laneAreaDetector><laneAreaDetector id="e2_210" lane="1188_0" pos="00.00" length="30.00" file="e2_5000.xml">
</laneAreaDetector><laneAreaDetector id="e2_211" lane="1189_0" pos="00.00" length="31.00" file="e2_5000.xml">
</laneAreaDetector><laneAreaDetector id="e2_212" lane="119_0" pos="00.00" length="39.00" file="e2_5000.xml">
</laneAreaDetector><laneAreaDetector id="e2_213" lane="1190_0" pos="00.00" length="31.00" file="e2_5000.xml">
</laneAreaDetector><laneAreaDetector id="e2_214" lane="1191_0" pos="00.00" length="24.00" file="e2_5000.xml">
</laneAreaDetector><laneAreaDetector id="e2_215" lane="1192_0" pos="00.00" length="24.00" file="e2_5000.xml">
</laneAreaDetector><laneAreaDetector id="e2_216" lane="1193_0" pos="00.00" length="26.00" file="e2_5000.xml">
</laneAreaDetector><laneAreaDetector id="e2_217" lane="1194_0" pos="00.00" length="26.00" file="e2_5000.xml">
</laneAreaDetector><laneAreaDetector id="e2_218" lane="1195_0" pos="00.00" length="94.00" file="e2_5000.xml">
</laneAreaDetector><laneAreaDetector id="e2_219" lane="1196_0" pos="00.00" length="94.00" file="e2_5000.xml">
</laneAreaDetector><laneAreaDetector id="e2_220" lane="1197_0" pos="00.00" length="8.00" file="e2_5000.xml">
</laneAreaDetector><laneAreaDetector id="e2_221" lane="1198_0" pos="00.00" length="8.00" file="e2_5000.xml">
</laneAreaDetector><laneAreaDetector id="e2_222" lane="1199_0" pos="00.00" length="27.00" file="e2_5000.xml">
</laneAreaDetector><laneAreaDetector id="e2_223" lane="12_0" pos="00.00" length="2.00" file="e2_5000.xml">
</laneAreaDetector><laneAreaDetector id="e2_224" lane="120_0" pos="00.00" length="16.00" file="e2_5000.xml">
</laneAreaDetector><laneAreaDetector id="e2_225" lane="1200_0" pos="00.00" length="27.00" file="e2_5000.xml">
</laneAreaDetector><laneAreaDetector id="e2_226" lane="1201_0" pos="00.00" length="28.00" file="e2_5000.xml">
</laneAreaDetector><laneAreaDetector id="e2_227" lane="1202_0" pos="00.00" length="28.00" file="e2_5000.xml">
</laneAreaDetector><laneAreaDetector id="e2_228" lane="1203_0" pos="00.00" length="2.00" file="e2_5000.xml">
</laneAreaDetector><laneAreaDetector id="e2_229" lane="1204_0" pos="00.00" length="2.00" file="e2_5000.xml">
</laneAreaDetector><laneAreaDetector id="e2_230" lane="1205_0" pos="00.00" length="46.00" file="e2_5000.xml">
</laneAreaDetector><laneAreaDetector id="e2_231" lane="1206_0" pos="00.00" length="46.00" file="e2_5000.xml">
</laneAreaDetector><laneAreaDetector id="e2_232" lane="1207_0" pos="00.00" length="7.00" file="e2_5000.xml">
</laneAreaDetector><laneAreaDetector id="e2_233" lane="1208_0" pos="00.00" length="7.00" file="e2_5000.xml">
</laneAreaDetector><laneAreaDetector id="e2_234" lane="1209_0" pos="00.00" length="100.00" file="e2_5000.xml">
</laneAreaDetector><laneAreaDetector id="e2_235" lane="121_0" pos="00.00" length="16.00" file="e2_5000.xml">
</laneAreaDetector><laneAreaDetector id="e2_236" lane="1210_0" pos="00.00" length="100.00" file="e2_5000.xml">
</laneAreaDetector><laneAreaDetector id="e2_237" lane="1211_0" pos="00.00" length="11.00" file="e2_5000.xml">
</laneAreaDetector><laneAreaDetector id="e2_238" lane="1212_0" pos="00.00" length="11.00" file="e2_5000.xml">
</laneAreaDetector><laneAreaDetector id="e2_239" lane="1213_0" pos="00.00" length="3.00" file="e2_5000.xml">
</laneAreaDetector><laneAreaDetector id="e2_240" lane="1214_0" pos="00.00" length="3.00" file="e2_5000.xml">
</laneAreaDetector><laneAreaDetector id="e2_241" lane="1215_0" pos="00.00" length="4.00" file="e2_5000.xml">
</laneAreaDetector><laneAreaDetector id="e2_242" lane="1216_0" pos="00.00" length="4.00" file="e2_5000.xml">
</laneAreaDetector><laneAreaDetector id="e2_243" lane="1217_0" pos="00.00" length="48.00" file="e2_5000.xml">
</laneAreaDetector><laneAreaDetector id="e2_244" lane="1218_0" pos="00.00" length="48.00" file="e2_5000.xml">
</laneAreaDetector><laneAreaDetector id="e2_245" lane="1219_0" pos="00.00" length="2.00" file="e2_5000.xml">
</laneAreaDetector><laneAreaDetector id="e2_246" lane="122_0" pos="00.00" length="11.00" file="e2_5000.xml">
</laneAreaDetector><laneAreaDetector id="e2_247" lane="1220_0" pos="00.00" length="2.00" file="e2_5000.xml">
</laneAreaDetector><laneAreaDetector id="e2_248" lane="1221_0" pos="00.00" length="2.00" file="e2_5000.xml">
</laneAreaDetector><laneAreaDetector id="e2_249" lane="1222_0" pos="00.00" length="2.00" file="e2_5000.xml">
</laneAreaDetector><laneAreaDetector id="e2_250" lane="1223_0" pos="00.00" length="2.00" file="e2_5000.xml">
</laneAreaDetector><laneAreaDetector id="e2_251" lane="1224_0" pos="00.00" length="2.00" file="e2_5000.xml">
</laneAreaDetector><laneAreaDetector id="e2_252" lane="1225_0" pos="00.00" length="2.00" file="e2_5000.xml">
</laneAreaDetector><laneAreaDetector id="e2_253" lane="1226_0" pos="00.00" length="2.00" file="e2_5000.xml">
</laneAreaDetector><laneAreaDetector id="e2_254" lane="1227_0" pos="00.00" length="2.00" file="e2_5000.xml">
</laneAreaDetector><laneAreaDetector id="e2_255" lane="1228_0" pos="00.00" length="2.00" file="e2_5000.xml">
</laneAreaDetector><laneAreaDetector id="e2_256" lane="1229_0" pos="00.00" length="2.00" file="e2_5000.xml">
</laneAreaDetector><laneAreaDetector id="e2_257" lane="123_0" pos="00.00" length="11.00" file="e2_5000.xml">
</laneAreaDetector><laneAreaDetector id="e2_258" lane="1230_0" pos="00.00" length="2.00" file="e2_5000.xml">
</laneAreaDetector><laneAreaDetector id="e2_259" lane="1231_0" pos="00.00" length="2.00" file="e2_5000.xml">
</laneAreaDetector><laneAreaDetector id="e2_260" lane="1232_0" pos="00.00" length="2.00" file="e2_5000.xml">
</laneAreaDetector><laneAreaDetector id="e2_261" lane="1233_0" pos="00.00" length="20.00" file="e2_5000.xml">
</laneAreaDetector><laneAreaDetector id="e2_262" lane="1234_0" pos="00.00" length="20.00" file="e2_5000.xml">
</laneAreaDetector><laneAreaDetector id="e2_263" lane="1235_0" pos="00.00" length="19.00" file="e2_5000.xml">
</laneAreaDetector><laneAreaDetector id="e2_264" lane="1236_0" pos="00.00" length="19.00" file="e2_5000.xml">
</laneAreaDetector><laneAreaDetector id="e2_265" lane="1237_0" pos="00.00" length="53.00" file="e2_5000.xml">
</laneAreaDetector><laneAreaDetector id="e2_266" lane="1238_0" pos="00.00" length="53.00" file="e2_5000.xml">
</laneAreaDetector><laneAreaDetector id="e2_267" lane="1239_0" pos="00.00" length="20.00" file="e2_5000.xml">
</laneAreaDetector><laneAreaDetector id="e2_268" lane="124_0" pos="00.00" length="13.00" file="e2_5000.xml">
</laneAreaDetector><laneAreaDetector id="e2_269" lane="1240_0" pos="00.00" length="20.00" file="e2_5000.xml">
</laneAreaDetector><laneAreaDetector id="e2_270" lane="1241_0" pos="00.00" length="20.00" file="e2_5000.xml">
</laneAreaDetector><laneAreaDetector id="e2_271" lane="1242_0" pos="00.00" length="20.00" file="e2_5000.xml">
</laneAreaDetector><laneAreaDetector id="e2_272" lane="1243_0" pos="00.00" length="5.00" file="e2_5000.xml">
</laneAreaDetector><laneAreaDetector id="e2_273" lane="1244_0" pos="00.00" length="5.00" file="e2_5000.xml">
</laneAreaDetector><laneAreaDetector id="e2_274" lane="1245_0" pos="00.00" length="5.00" file="e2_5000.xml">