<?xml version="1.0" encoding="UTF-8"?>

<!-- generated on 2023-03-09 09:34:01 by Eclipse SUMO netedit Version 1.16.0
<configuration xmlns:xsi="http://www.w3.org/2001/XMLSchema-instance" xsi:noNamespaceSchemaLocation="http://sumo.dlr.de/xsd/netconvertConfiguration.xsd">

    <input>
        <sumo-net-file value="2k/MASA.net.xml"/>
    </input>

    <output>
        <output-file value="2k/MASA.net.xml"/>
    </output>

    <processing>
        <geometry.min-radius.fix.railways value="false"/>
        <geometry.max-grade.fix value="false"/>
        <offset.disable-normalization value="true"/>
        <lefthand value="0"/>
    </processing>

    <junctions>
        <no-turnarounds value="true"/>
        <junctions.corner-detail value="5"/>
        <junctions.limit-turn-speed value="5.50"/>
        <rectangular-lane-cut value="0"/>
    </junctions>

    <pedestrian>
        <walkingareas value="0"/>
    </pedestrian>

</configuration>
-->

<net version="1.16" junctionCornerDetail="5" limitTurnSpeed="5.50" xmlns:xsi="http://www.w3.org/2001/XMLSchema-instance" xsi:noNamespaceSchemaLocation="http://sumo.dlr.de/xsd/net_file.xsd">

    <location netOffset="-652465.65,-4946069.74" convBoundary="0.00,0.00,2651.53,2431.81" origBoundary="652465.65,4946069.74,655117.18,4948501.55" projParameter="!"/>

    <edge id=":1076629757_0" function="internal">
        <lane id=":1076629757_0_0" index="0" speed="8.18" length="4.99" shape="613.66,704.65 612.97,705.97 612.58,706.94 612.50,707.95 612.73,709.38"/>
    </edge>
    <edge id=":1076629757_1" function="internal">
        <lane id=":1076629757_1_0" index="0" speed="8.33" length="5.30" shape="609.53,704.59 610.60,705.96 611.48,706.84 612.18,707.79 612.73,709.38"/>
        <lane id=":1076629757_1_1" index="1" speed="8.33" length="5.30" shape="606.84,706.32 607.74,707.42 608.51,708.09 609.14,708.82 609.61,710.09"/>
    </edge>
    <edge id=":1076629758_0" function="internal">
        <lane id=":1076629758_0_0" index="0" speed="8.33" length="1.13" shape="614.51,717.21 614.62,717.70 614.66,718.04 614.65,718.38 614.59,718.88"/>
        <lane id=":1076629758_0_1" index="1" speed="8.33" length="1.13" shape="611.39,717.92 611.43,718.08 611.44,718.19 611.44,718.31 611.42,718.47"/>
    </edge>
    <edge id=":1076629761_0" function="internal">
        <lane id=":1076629761_0_0" index="0" speed="8.33" length="1.33" shape="613.71,725.73 613.63,726.32 613.53,726.71 613.36,727.08 613.06,727.60"/>
        <lane id=":1076629761_0_1" index="1" speed="8.33" length="1.33" shape="610.54,725.32 610.51,725.52 610.48,725.65 610.42,725.77 610.32,725.95"/>
    </edge>
    <edge id=":1076629764_0" function="internal">
        <lane id=":1076629764_0_0" index="0" speed="8.33" length="1.12" shape="593.06,743.67 592.58,743.79 592.24,743.85 591.90,743.86 591.40,743.82"/>
        <lane id=":1076629764_0_1" index="1" speed="8.33" length="1.12" shape="592.21,740.58 592.05,740.62 591.93,740.64 591.82,740.65 591.65,740.63"/>
    </edge>
    <edge id=":1076629766_0" function="internal">
        <lane id=":1076629766_0_0" index="0" speed="8.33" length="1.11" shape="584.49,743.27 584.00,743.23 583.66,743.17 583.34,743.06 582.89,742.86"/>
        <lane id=":1076629766_0_1" index="1" speed="8.33" length="1.11" shape="584.74,740.08 584.58,740.07 584.47,740.05 584.36,740.01 584.21,739.95"/>
    </edge>
    <edge id=":1076629767_0" function="internal">
        <lane id=":1076629767_0_0" index="0" speed="8.33" length="1.82" shape="574.03,738.81 575.33,739.16"/>
        <lane id=":1076629767_0_1" index="1" speed="8.33" length="1.82" shape="575.38,735.90 577.48,736.79"/>
    </edge>
    <edge id=":1076629769_0" function="internal">
        <lane id=":1076629769_0_0" index="0" speed="8.33" length="4.01" shape="566.91,728.30 567.21,731.76"/>
        <lane id=":1076629769_0_1" index="1" speed="8.33" length="4.01" shape="569.69,726.71 570.36,731.22"/>
    </edge>
    <edge id=":1076629770_0" function="internal">
        <lane id=":1076629770_0_0" index="0" speed="8.33" length="1.13" shape="565.18,719.91 565.10,719.42 565.07,719.07 565.10,718.73 565.19,718.23"/>
        <lane id=":1076629770_0_1" index="1" speed="8.33" length="1.13" shape="568.33,719.37 568.31,719.21 568.30,719.09 568.31,718.98 568.34,718.81"/>
    </edge>
    <edge id=":1076629771_0" function="internal">
        <lane id=":1076629771_0_0" index="0" speed="7.63" length="8.81" shape="566.71,709.96 567.13,707.39 567.21,705.59 566.91,703.81 566.20,701.30"/>
    </edge>
    <edge id=":1076629771_1" function="internal">
        <lane id=":1076629771_1_0" index="0" speed="8.33" length="7.46" shape="566.71,709.96 567.36,707.75 568.23,706.40 569.32,705.13 570.62,703.15"/>
        <lane id=":1076629771_1_1" index="1" speed="8.33" length="7.46" shape="569.86,710.53 570.45,708.62 571.27,707.47 572.28,706.38 573.44,704.67"/>
    </edge>
    <edge id=":1076629776_0" function="internal">
        <lane id=":1076629776_0_0" index="0" speed="8.33" length="1.13" shape="584.99,695.07 585.46,694.90 585.80,694.82 586.14,694.79 586.64,694.79"/>
        <lane id=":1076629776_0_1" index="1" speed="8.33" length="1.13" shape="586.06,698.08 586.21,698.03 586.33,698.00 586.44,697.99 586.61,697.99"/>
    </edge>
    <edge id=":1076629777_0" function="internal">
        <lane id=":1076629777_0_0" index="0" speed="8.33" length="1.11" shape="593.58,694.86 594.07,694.87 594.41,694.91 594.74,694.99 595.20,695.16"/>
        <lane id=":1076629777_0_1" index="1" speed="8.33" length="1.11" shape="593.55,698.06 593.71,698.06 593.82,698.08 593.93,698.10 594.09,698.16"/>
    </edge>
    <edge id=":1076629780_0" function="internal">
        <lane id=":1076629780_0_0" index="0" speed="8.33" length="1.26" shape="603.81,698.39 603.04,698.35"/>
        <lane id=":1076629780_0_1" index="1" speed="8.33" length="1.26" shape="602.69,701.38 601.03,700.84"/>
    </edge>
    <edge id=":1076629789_0" function="internal">
        <lane id=":1076629789_0_0" index="0" speed="11.08" length="1.08" shape="907.84,414.00 907.64,413.56 907.52,413.25 907.46,412.93 907.40,412.45"/>
        <lane id=":1076629789_0_1" index="1" speed="13.89" length="1.08" shape="910.73,412.64 910.67,412.49 910.63,412.39 910.61,412.28 910.59,412.12"/>
    </edge>
    <edge id=":1076629791_0" function="internal">
        <lane id=":1076629791_0_0" index="0" speed="13.89" length="0.73" shape="910.37,396.29 910.54,396.01 910.67,395.83 910.81,395.66 911.03,395.42"/>
        <lane id=":1076629791_0_1" index="1" speed="13.89" length="0.73" shape="913.13,397.92 913.19,397.82 913.23,397.76 913.28,397.71 913.35,397.63"/>
    </edge>
    <edge id=":1076629793_0" function="internal">
        <lane id=":1076629793_0_0" index="0" speed="7.20" length="5.71" shape="913.64,389.51 914.90,389.99 916.24,390.13 917.65,389.93 919.15,389.39"/>
    </edge>
    <edge id=":1076629793_1" function="internal">
        <lane id=":1076629793_1_0" index="0" speed="13.89" length="6.53" shape="913.34,392.85 915.01,391.72 916.15,390.95 917.34,390.27 919.15,389.39"/>
        <lane id=":1076629793_1_1" index="1" speed="13.89" length="6.53" shape="915.11,395.52 916.66,394.47 917.72,393.75 918.82,393.11 920.49,392.30"/>
    </edge>
    <edge id=":1076629794_0" function="internal">
        <lane id=":1076629794_0_0" index="0" speed="13.89" length="1.59" shape="930.78,388.55 929.63,388.02"/>
        <lane id=":1076629794_0_1" index="1" speed="13.89" length="1.59" shape="930.31,391.72 928.52,391.02"/>
    </edge>
    <edge id=":1076629795_0" function="internal">
        <lane id=":1076629795_0_0" index="0" speed="13.89" length="4.16" shape="945.70,399.90 943.06,397.33"/>
        <lane id=":1076629795_0_1" index="1" speed="13.89" length="4.16" shape="943.35,402.07 940.17,398.70"/>
    </edge>
    <edge id=":1076629797_0" function="internal">
        <lane id=":1076629797_0_0" index="0" speed="13.89" length="0.61" shape="945.99,407.12 946.17,407.73"/>
        <lane id=":1076629797_0_1" index="1" speed="13.89" length="0.61" shape="942.82,407.57 943.05,407.03"/>
    </edge>
    <edge id=":1076629799_0" function="internal">
        <lane id=":1076629799_0_0" index="0" speed="12.35" length="1.02" shape="938.51,423.01 938.19,423.33 937.95,423.53 937.68,423.70 937.28,423.91"/>
        <lane id=":1076629799_0_1" index="1" speed="13.89" length="1.02" shape="936.25,420.75 936.14,420.86 936.06,420.92 935.97,420.98 935.84,421.05"/>
    </edge>
    <edge id=":1076629800_0" function="internal">
        <lane id=":1076629800_0_0" index="0" speed="13.89" length="0.68" shape="922.77,426.89 922.47,426.86 922.27,426.83 922.06,426.77 921.78,426.68"/>
        <lane id=":1076629800_0_1" index="1" speed="13.89" length="0.68" shape="923.10,423.71 923.00,423.70 922.94,423.69 922.87,423.67 922.77,423.64"/>
    </edge>
    <edge id=":1131729791_0" function="internal">
        <lane id=":1131729791_0_0" index="0" speed="4.17" length="0.30" shape="2259.31,1601.63 2259.05,1601.79"/>
    </edge>
    <edge id=":1131729791_1" function="internal">
        <lane id=":1131729791_1_0" index="0" speed="4.17" length="0.30" shape="2257.41,1599.04 2257.66,1598.89"/>
    </edge>
    <edge id=":122006276_0" function="internal">
        <lane id=":122006276_0_0" index="0" speed="19.44" length="8.44" shape="2202.78,870.74 2204.85,869.46 2205.84,867.91 2206.81,866.32 2208.84,864.93"/>
        <lane id=":122006276_0_1" index="1" speed="19.44" length="8.44" shape="2203.88,873.75 2205.99,872.45 2207.01,870.89 2208.02,869.29 2210.08,867.88"/>
        <lane id=":122006276_0_2" index="2" speed="19.44" length="8.44" shape="2203.88,873.75 2211.32,870.83"/>
    </edge>
    <edge id=":122006279_0" function="internal">
        <lane id=":122006279_0_0" index="0" speed="19.44" length="0.35" shape="1790.93,983.88 1791.07,983.83 1791.17,983.79 1791.28,983.76 1791.43,983.71"/>
        <lane id=":122006279_0_1" index="1" speed="19.44" length="0.35" shape="1792.12,986.85 1792.16,986.84 1792.20,986.82 1792.23,986.81 1792.28,986.80"/>
    </edge>
    <edge id=":122006281_0" function="internal">
        <lane id=":122006281_0_0" index="0" speed="19.44" length="0.22" shape="1746.51,1001.68 1746.81,1001.54"/>
        <lane id=":122006281_0_1" index="1" speed="19.44" length="0.22" shape="1747.90,1004.56 1748.00,1004.51"/>
    </edge>
    <edge id=":122006284_0" function="internal">
        <lane id=":122006284_0_0" index="0" speed="19.44" length="0.28" shape="1639.28,1065.14 1639.53,1064.96"/>
        <lane id=":122006284_0_1" index="1" speed="19.44" length="0.28" shape="1641.16,1067.73 1641.37,1067.58"/>
    </edge>
    <edge id=":1419841705_0" function="internal">
        <lane id=":1419841705_0_0" index="0" speed="13.89" length="0.16" shape="639.16,683.40 639.10,683.45"/>
        <lane id=":1419841705_0_1" index="1" speed="13.89" length="0.16" shape="637.14,680.91 636.96,681.07"/>
    </edge>
    <edge id=":1433699948_0" function="internal">
        <lane id=":1433699948_0_0" index="0" speed="8.33" length="0.75" shape="2305.09,539.66 2305.41,539.58 2305.64,539.54 2305.87,539.52 2306.20,539.52"/>
        <lane id=":1433699948_0_1" index="1" speed="8.33" length="0.75" shape="2305.85,542.77 2305.96,542.74 2306.03,542.73 2306.11,542.72 2306.22,542.72"/>
    </edge>
    <edge id=":1433699957_0" function="internal">
        <lane id=":1433699957_0_0" index="0" speed="8.33" length="0.42" shape="2301.31,540.63 2301.48,540.56 2301.60,540.52 2301.73,540.48 2301.91,540.44"/>
        <lane id=":1433699957_0_1" index="1" speed="8.33" length="0.42" shape="2302.47,543.61 2302.53,543.59 2302.57,543.57 2302.61,543.56 2302.67,543.55"/>
    </edge>
    <edge id=":1433699960_0" function="internal">
        <lane id=":1433699960_0_0" index="0" speed="8.33" length="0.32" shape="2288.61,547.22 2288.65,547.20 2288.68,547.19 2288.71,547.17 2288.75,547.14"/>
        <lane id=":1433699960_0_1" index="1" speed="8.33" length="0.32" shape="2290.11,550.05 2290.24,549.98 2290.33,549.93 2290.41,549.88 2290.53,549.80"/>
    </edge>
    <edge id=":1433699964_0" function="internal">
        <lane id=":1433699964_0_0" index="0" speed="8.33" length="0.35" shape="2279.53,551.72 2279.58,551.70 2279.62,551.69 2279.65,551.68 2279.70,551.65"/>
        <lane id=":1433699964_0_1" index="1" speed="8.33" length="0.35" shape="2280.53,554.76 2280.68,554.71 2280.78,554.67 2280.88,554.63 2281.02,554.57"/>
    </edge>
    <edge id=":1433699966_0" function="internal">
        <lane id=":1433699966_0_0" index="0" speed="8.33" length="0.44" shape="2274.55,553.34 2274.61,553.32 2274.66,553.31 2274.70,553.30 2274.76,553.28"/>
        <lane id=":1433699966_0_1" index="1" speed="8.33" length="0.44" shape="2275.12,556.48 2275.31,556.45 2275.44,556.42 2275.57,556.38 2275.76,556.32"/>
    </edge>
    <edge id=":1433699968_0" function="internal">
        <lane id=":1433699968_0_0" index="0" speed="8.33" length="0.61" shape="2269.16,568.40 2269.83,569.11"/>
        <lane id=":1433699968_0_1" index="1" speed="8.33" length="0.61" shape="2272.02,566.95 2272.26,567.03"/>
    </edge>
    <edge id=":1433699969_0" function="internal">
        <lane id=":1433699969_0_0" index="0" speed="3.65" length="4.67" shape="2297.95,572.80 2298.66,574.06 2298.66,574.95 2297.94,575.48 2296.51,575.66"/>
    </edge>
    <edge id=":1433699970_0" function="internal">
        <lane id=":1433699970_0_0" index="0" speed="8.33" length="0.27" shape="2272.64,577.67 2272.60,577.45"/>
        <lane id=":1433699970_0_1" index="1" speed="8.33" length="0.27" shape="2275.79,577.13 2275.74,576.83"/>
    </edge>
    <edge id=":1433699976_0" function="internal">
        <lane id=":1433699976_0_0" index="0" speed="8.33" length="0.85" shape="2276.00,603.64 2275.84,603.29 2275.74,603.05 2275.68,602.80 2275.61,602.43"/>
        <lane id=":1433699976_0_1" index="1" speed="8.33" length="0.85" shape="2278.89,602.26 2278.83,602.14 2278.80,602.06 2278.78,601.98 2278.76,601.86"/>
    </edge>
    <edge id=":1433716824_0" function="internal">
        <lane id=":1433716824_0_0" index="0" speed="13.89" length="0.31" shape="1798.56,349.11 1798.28,348.98"/>
    </edge>
    <edge id=":1433716824_1" function="internal">
        <lane id=":1433716824_1_0" index="0" speed="13.89" length="0.26" shape="1799.62,346.08 1799.86,346.19"/>
    </edge>
    <edge id=":1433716825_0" function="internal">
        <lane id=":1433716825_0_0" index="0" speed="6.48" length="9.03" shape="1863.81,378.12 1861.43,377.42 1859.41,377.66 1857.75,378.84 1856.44,380.94"/>
    </edge>
    <edge id=":1433716825_1" function="internal">
        <lane id=":1433716825_1_0" index="0" speed="13.89" length="11.21" shape="1863.81,378.12 1853.59,373.52"/>
    </edge>
    <edge id=":1433716825_2" function="internal">
        <lane id=":1433716825_2_0" index="0" speed="3.65" length="1.44" shape="1863.81,378.12 1863.05,376.89"/>
    </edge>
    <edge id=":1433716825_6" function="internal">
        <lane id=":1433716825_6_0" index="0" speed="3.65" length="3.23" shape="1863.05,376.89 1863.02,376.00 1863.71,375.44 1865.14,375.20"/>
    </edge>
    <edge id=":1433716825_3" function="internal">
        <lane id=":1433716825_3_0" index="0" speed="13.89" length="11.24" shape="1854.89,370.59 1865.14,375.20"/>
    </edge>
    <edge id=":1433716825_4" function="internal">
        <lane id=":1433716825_4_0" index="0" speed="7.35" length="2.50" shape="1854.89,370.59 1856.90,372.09"/>
    </edge>
    <edge id=":1433716825_5" function="internal">
        <lane id=":1433716825_5_0" index="0" speed="3.65" length="1.44" shape="1854.89,370.59 1855.66,371.81"/>
    </edge>
    <edge id=":1433716825_7" function="internal">
        <lane id=":1433716825_7_0" index="0" speed="7.35" length="9.25" shape="1856.90,372.09 1857.82,374.31 1857.67,377.26 1856.44,380.94"/>
    </edge>
    <edge id=":1433716825_8" function="internal">
        <lane id=":1433716825_8_0" index="0" speed="3.65" length="3.23" shape="1855.66,371.81 1855.70,372.70 1855.01,373.27 1853.59,373.52"/>
    </edge>
    <edge id=":1433716826_0" function="internal">
        <lane id=":1433716826_0_0" index="0" speed="4.17" length="11.01" shape="1833.26,447.30 1823.27,442.67"/>
    </edge>
    <edge id=":1433716826_1" function="internal">
        <lane id=":1433716826_1_0" index="0" speed="3.65" length="4.67" shape="1833.26,447.30 1832.51,446.07 1832.48,445.17 1833.18,444.62 1834.61,444.40"/>
    </edge>
    <edge id=":1433716826_2" function="internal">
        <lane id=":1433716826_2_0" index="0" speed="4.17" length="8.94" shape="1831.87,437.01 1831.21,439.38 1831.44,441.40 1832.58,443.07 1834.61,444.40"/>
    </edge>
    <edge id=":1433716826_3" function="internal">
        <lane id=":1433716826_3_0" index="0" speed="4.17" length="11.62" shape="1831.87,437.01 1830.02,440.36 1827.97,442.43 1825.72,443.20 1823.27,442.67"/>
    </edge>
    <edge id=":1433716826_4" function="internal">
        <lane id=":1433716826_4_0" index="0" speed="4.17" length="11.02" shape="1824.61,439.77 1834.61,444.40"/>
    </edge>
    <edge id=":1433716826_5" function="internal">
        <lane id=":1433716826_5_0" index="0" speed="3.65" length="4.67" shape="1824.61,439.77 1825.37,440.99 1825.40,441.89 1824.70,442.45 1823.27,442.67"/>
    </edge>
    <edge id=":1433716827_0" function="internal">
        <lane id=":1433716827_0_0" index="0" speed="3.65" length="4.67" shape="1827.88,466.29 1829.28,466.64 1829.93,467.26 1829.82,468.15 1828.96,469.31"/>
    </edge>
    <edge id=":1433716828_0" function="internal">
        <lane id=":1433716828_0_0" index="0" speed="3.91" length="2.43" shape="1776.13,471.06 1775.79,470.49 1775.34,470.16 1774.80,470.06 1774.15,470.18"/>
    </edge>
    <edge id=":1433716828_1" function="internal">
        <lane id=":1433716828_1_0" index="0" speed="4.17" length="7.30" shape="1773.11,467.16 1775.05,466.78 1776.69,467.09 1778.03,468.09 1779.07,469.78"/>
    </edge>
    <edge id=":1433716829_0" function="internal">
        <lane id=":1433716829_0_0" index="0" speed="4.17" length="7.36" shape="1786.81,484.35 1784.85,484.75 1783.20,484.46 1781.85,483.45 1780.80,481.75"/>
    </edge>
    <edge id=":1433716829_1" function="internal">
        <lane id=":1433716829_1_0" index="0" speed="3.91" length="2.45" shape="1783.73,480.47 1784.08,481.04 1784.53,481.37 1785.08,481.47 1785.74,481.34"/>
    </edge>
    <edge id=":1433716831_0" function="internal">
        <lane id=":1433716831_0_0" index="0" speed="6.94" length="14.31" shape="1732.23,490.59 1727.21,477.18"/>
    </edge>
    <edge id=":1433716831_1" function="internal">
        <lane id=":1433716831_1_0" index="0" speed="5.55" length="3.92" shape="1732.23,490.59 1731.42,486.75"/>
    </edge>
    <edge id=":1433716831_2" function="internal">
        <lane id=":1433716831_2_0" index="0" speed="3.65" length="1.44" shape="1732.23,490.59 1732.57,489.19"/>
    </edge>
    <edge id=":1433716831_9" function="internal">
        <lane id=":1433716831_9_0" index="0" speed="5.55" length="10.34" shape="1731.42,486.75 1732.05,483.60 1734.11,481.13 1737.59,479.35"/>
    </edge>
    <edge id=":1433716831_10" function="internal">
        <lane id=":1433716831_10_0" index="0" speed="3.65" length="3.23" shape="1732.57,489.19 1733.18,488.54 1734.07,488.64 1735.23,489.49"/>
    </edge>
    <edge id=":1433716831_3" function="internal">
        <lane id=":1433716831_3_0" index="0" speed="5.55" length="9.03" shape="1738.63,482.38 1736.43,483.51 1735.12,485.07 1734.72,487.07 1735.23,489.49"/>
    </edge>
    <edge id=":1433716831_4" function="internal">
        <lane id=":1433716831_4_0" index="0" speed="5.55" length="14.20" shape="1738.63,482.38 1734.80,483.12 1731.62,482.51 1729.09,480.53 1727.21,477.18"/>
    </edge>
    <edge id=":1433716831_5" function="internal">
        <lane id=":1433716831_5_0" index="0" speed="3.65" length="4.67" shape="1738.63,482.38 1737.24,482.01 1736.60,481.38 1736.72,480.50 1737.59,479.35"/>
    </edge>
    <edge id=":1433716831_6" function="internal">
        <lane id=":1433716831_6_0" index="0" speed="5.55" length="9.17" shape="1730.20,476.03 1731.41,478.18 1733.04,479.45 1735.11,479.84 1737.59,479.35"/>
    </edge>
    <edge id=":1433716831_7" function="internal">
        <lane id=":1433716831_7_0" index="0" speed="6.94" length="14.37" shape="1730.20,476.03 1735.23,489.49"/>
    </edge>
    <edge id=":1433716831_8" function="internal">
        <lane id=":1433716831_8_0" index="0" speed="3.65" length="1.44" shape="1730.20,476.03 1729.88,477.44"/>
    </edge>
    <edge id=":1433716831_11" function="internal">
        <lane id=":1433716831_11_0" index="0" speed="3.65" length="3.23" shape="1729.88,477.44 1729.28,478.10 1728.39,478.01 1727.21,477.18"/>
    </edge>
    <edge id=":1433716832_0" function="internal">
        <lane id=":1433716832_0_0" index="0" speed="2.78" length="0.79" shape="2078.60,502.74 2078.37,502.78 2078.22,502.83 2078.07,502.90 2077.88,503.04"/>
    </edge>
    <edge id=":1433716832_1" function="internal">
        <lane id=":1433716832_1_0" index="0" speed="2.78" length="2.37" shape="2075.97,500.47 2076.54,500.07 2076.97,499.83 2077.43,499.69 2078.12,499.58"/>
    </edge>
    <edge id=":1433716833_0" function="internal">
        <lane id=":1433716833_0_0" index="0" speed="2.78" length="0.55" shape="2084.30,502.84 2084.15,502.78 2084.04,502.74 2083.93,502.72 2083.77,502.70"/>
    </edge>
    <edge id=":1433716833_1" function="internal">
        <lane id=":1433716833_1_0" index="0" speed="2.78" length="1.65" shape="2084.06,499.52 2084.55,499.57 2084.88,499.63 2085.20,499.74 2085.65,499.94"/>
    </edge>
    <edge id=":1433716834_0" function="internal">
        <lane id=":1433716834_0_0" index="0" speed="2.78" length="1.74" shape="2091.15,509.84 2090.74,509.54 2090.47,509.30 2090.25,509.03 2089.96,508.60"/>
    </edge>
    <edge id=":1433716834_1" function="internal">
        <lane id=":1433716834_1_0" index="0" speed="2.78" length="0.58" shape="2092.62,506.83 2092.71,506.97 2092.79,507.06 2092.88,507.14 2093.02,507.24"/>
    </edge>
    <edge id=":1433716837_0" function="internal">
        <lane id=":1433716837_0_0" index="0" speed="2.78" length="0.58" shape="2095.05,512.59 2094.90,512.50 2094.80,512.44 2094.70,512.38 2094.56,512.28"/>
    </edge>
    <edge id=":1433716837_1" function="internal">
        <lane id=":1433716837_1_0" index="0" speed="2.78" length="0.19" shape="2096.42,509.68 2096.47,509.71 2096.50,509.73 2096.54,509.75 2096.59,509.78"/>
    </edge>
    <edge id=":1433716840_0" function="internal">
        <lane id=":1433716840_0_0" index="0" speed="2.78" length="2.06" shape="2100.85,515.26 2100.24,515.20 2099.83,515.12 2099.43,514.97 2098.89,514.68"/>
    </edge>
    <edge id=":1433716840_1" function="internal">
        <lane id=":1433716840_1_0" index="0" speed="2.78" length="0.69" shape="2100.43,511.87 2100.61,511.97 2100.74,512.02 2100.87,512.05 2101.08,512.06"/>
    </edge>
    <edge id=":1433716844_0" function="internal">
        <lane id=":1433716844_0_0" index="0" speed="4.17" length="2.52" shape="2235.74,529.01 2236.08,529.67 2236.25,530.16 2236.30,530.67 2236.29,531.41"/>
    </edge>
    <edge id=":1433716844_1" function="internal">
        <lane id=":1433716844_1_0" index="0" speed="4.17" length="0.84" shape="2233.09,531.29 2233.09,531.04 2233.08,530.87 2233.02,530.71 2232.91,530.48"/>
    </edge>
    <edge id=":1433716845_0" function="internal">
        <lane id=":1433716845_0_0" index="0" speed="4.17" length="1.98" shape="2124.15,533.85 2123.68,533.51 2123.37,533.25 2123.12,532.93 2122.81,532.43"/>
    </edge>
    <edge id=":1433716845_1" function="internal">
        <lane id=":1433716845_1_0" index="0" speed="4.17" length="0.66" shape="2125.53,530.75 2125.64,530.92 2125.72,531.02 2125.82,531.11 2125.98,531.23"/>
    </edge>
    <edge id=":1433716846_0" function="internal">
        <lane id=":1433716846_0_0" index="0" speed="4.17" length="0.10" shape="2136.59,541.67 2136.67,541.61"/>
    </edge>
    <edge id=":1433716846_1" function="internal">
        <lane id=":1433716846_1_0" index="0" speed="4.17" length="0.65" shape="2138.22,538.82 2137.60,538.64"/>
    </edge>
    <edge id=":1433716849_0" function="internal">
        <lane id=":1433716849_0_0" index="0" speed="4.17" length="0.28" shape="1438.83,618.25 1438.59,618.10"/>
    </edge>
    <edge id=":1433716849_1" function="internal">
        <lane id=":1433716849_1_0" index="0" speed="4.17" length="0.14" shape="1440.35,615.43 1440.47,615.50"/>
    </edge>
    <edge id=":1433716850_0" function="internal">
        <lane id=":1433716850_0_0" index="0" speed="4.17" length="1.19" shape="2012.87,884.59 2012.88,884.95 2012.87,885.19 2012.83,885.43 2012.76,885.77"/>
    </edge>
    <edge id=":1433716850_1" function="internal">
        <lane id=":1433716850_1_0" index="0" speed="4.17" length="0.40" shape="2009.63,885.08 2009.66,884.97 2009.67,884.89 2009.67,884.81 2009.67,884.69"/>
    </edge>
    <edge id=":1433716851_0" function="internal">
        <lane id=":1433716851_0_0" index="0" speed="4.17" length="0.95" shape="2007.58,901.94 2007.47,902.20 2007.38,902.38 2007.28,902.55 2007.13,902.78"/>
    </edge>
    <edge id=":1433716851_1" function="internal">
        <lane id=":1433716851_1_0" index="0" speed="4.17" length="0.32" shape="2004.48,900.99 2004.53,900.91 2004.56,900.85 2004.59,900.79 2004.63,900.71"/>
    </edge>
    <edge id=":1433716852_0" function="internal">
        <lane id=":1433716852_0_0" index="0" speed="4.17" length="0.89" shape="1996.33,914.62 1996.12,914.78 1995.97,914.89 1995.82,914.97 1995.58,915.09"/>
    </edge>
    <edge id=":1433716852_1" function="internal">
        <lane id=":1433716852_1_0" index="0" speed="4.17" length="0.30" shape="1994.15,912.23 1994.23,912.19 1994.28,912.16 1994.33,912.13 1994.40,912.08"/>
    </edge>
    <edge id=":1447327555_0" function="internal">
        <lane id=":1447327555_0_0" index="0" speed="4.17" length="0.57" shape="1907.89,1809.88 1907.75,1809.96 1907.65,1810.02 1907.54,1810.07 1907.39,1810.14"/>
    </edge>
    <edge id=":1447327555_1" function="internal">
        <lane id=":1447327555_1_0" index="0" speed="4.17" length="0.19" shape="1906.09,1807.22 1906.14,1807.19 1906.17,1807.18 1906.21,1807.16 1906.25,1807.13"/>
    </edge>
    <edge id=":1476164942_0" function="internal">
        <lane id=":1476164942_0_0" index="0" speed="4.17" length="0.32" shape="1407.10,1114.64 1407.14,1114.72 1407.16,1114.79 1407.17,1114.85 1407.19,1114.94"/>
    </edge>
    <edge id=":1476164945_0" function="internal">
        <lane id=":1476164945_0_0" index="0" speed="4.17" length="0.43" shape="1407.50,1116.58 1407.52,1116.71 1407.53,1116.80 1407.53,1116.88 1407.52,1117.01"/>
    </edge>
    <edge id=":1476164946_0" function="internal">
        <lane id=":1476164946_0_0" index="0" speed="4.17" length="0.49" shape="1407.21,1120.37 1407.19,1120.52 1407.17,1120.62 1407.14,1120.71 1407.08,1120.85"/>
    </edge>
    <edge id=":1476164947_0" function="internal">
        <lane id=":1476164947_0_0" index="0" speed="4.17" length="0.10" shape="1391.56,1121.63 1391.50,1121.58"/>
    </edge>
    <edge id=":1476164948_0" function="internal">
        <lane id=":1476164948_0_0" index="0" speed="4.17" length="0.43" shape="1406.48,1122.21 1406.43,1122.32 1406.39,1122.40 1406.34,1122.47 1406.26,1122.57"/>
    </edge>
    <edge id=":1476164949_0" function="internal">
        <lane id=":1476164949_0_0" index="0" speed="4.17" length="0.23" shape="1393.42,1123.24 1393.36,1123.20 1393.32,1123.18 1393.29,1123.15 1393.24,1123.10"/>
    </edge>
    <edge id=":1476164953_0" function="internal">
        <lane id=":1476164953_0_0" index="0" speed="4.17" length="0.41" shape="1395.62,1124.61 1395.50,1124.57 1395.42,1124.54 1395.35,1124.50 1395.25,1124.43"/>
    </edge>
    <edge id=":1476164955_0" function="internal">
        <lane id=":1476164955_0_0" index="0" speed="4.17" length="0.71" shape="1401.11,1125.80 1400.90,1125.85 1400.76,1125.87 1400.62,1125.86 1400.41,1125.82"/>
    </edge>
    <edge id=":1476164957_0" function="internal">
        <lane id=":1476164957_0_0" index="0" speed="4.17" length="0.40" shape="1617.25,1134.12 1617.13,1134.10 1617.05,1134.10 1616.97,1134.10 1616.85,1134.11"/>
    </edge>
    <edge id=":1476164959_0" function="internal">
        <lane id=":1476164959_0_0" index="0" speed="4.17" length="0.24" shape="1593.26,1138.29 1593.19,1138.31 1593.14,1138.32 1593.10,1138.34 1593.03,1138.37"/>
    </edge>
    <edge id=":1476164961_0" function="internal">
        <lane id=":1476164961_0_0" index="0" speed="4.17" length="0.27" shape="1640.25,1141.27 1640.19,1141.22 1640.14,1141.19 1640.09,1141.17 1640.02,1141.13"/>
    </edge>
    <edge id=":1476164963_0" function="internal">
        <lane id=":1476164963_0_0" index="0" speed="4.17" length="0.56" shape="1660.60,1157.78 1660.53,1157.64 1660.47,1157.54 1660.40,1157.45 1660.28,1157.33"/>
    </edge>
    <edge id=":1476164965_0" function="internal">
        <lane id=":1476164965_0_0" index="0" speed="4.17" length="0.62" shape="1466.54,1232.08 1466.83,1231.54"/>
    </edge>
    <edge id=":1476164966_0" function="internal">
        <lane id=":1476164966_0_0" index="0" speed="4.17" length="3.92" shape="1445.94,1248.91 1449.86,1248.90"/>
    </edge>
    <edge id=":1476164966_1" function="internal">
        <lane id=":1476164966_1_0" index="0" speed="4.17" length="3.25" shape="1449.88,1245.70 1446.63,1245.78"/>
    </edge>
    <edge id=":1476164968_0" function="internal">
        <lane id=":1476164968_0_0" index="0" speed="4.17" length="0.63" shape="1435.70,1250.50 1435.52,1250.55 1435.40,1250.60 1435.29,1250.67 1435.15,1250.78"/>
    </edge>
    <edge id=":1476164968_1" function="internal">
        <lane id=":1476164968_1_0" index="0" speed="4.17" length="1.88" shape="1433.18,1248.26 1433.62,1247.92 1433.95,1247.72 1434.30,1247.58 1434.84,1247.42"/>
    </edge>
    <edge id=":1476164970_0" function="internal">
        <lane id=":1476164970_0_0" index="0" speed="4.17" length="0.28" shape="1466.61,1249.80 1466.63,1249.88 1466.64,1249.93 1466.66,1249.99 1466.69,1250.07"/>