<routes xmlns:xsi="http://www.w3.org/2001/XMLSchema-instance" xsi:noNamespaceSchemaLocation="http://sumo.dlr.de/xsd/routes_file.xsd">
    
  <vType id="car" vClass="passenger"/>
  <vType id="bicycle" vClass="bicycle"/>
    <trip id="55_0" depart="20704.00" from="1613" to="1163" type="car" />
    <trip id="1575_0" depart="21435.00" from="59" to="744" type="car" />
    <trip id="1909_0" depart="21638.00" from="441" to="268" type="car" />
    <trip id="1753_0" depart="21667.00" from="1494" to="498" type="car" />
    <trip id="1876_0" depart="21759.00" from="397" to="1132" type="car" />
    <trip id="1496_0" depart="21795.00" from="754" to="2000" type="car" />
    <trip id="185_0" depart="22021.00" from="524" to="2114" type="car" />
    <trip id="1732_0" depart="22208.00" from="884" to="923" type="car" />
    <trip id="880_0" depart="22228.00" from="210" to="996" type="car" />
    <trip id="2236_0" depart="22429.00" from="1510" to="2037" type="car" />
    <trip id="957_0" depart="22721.00" from="1011" to="267" type="car" />
    <trip id="1931_0" depart="23071.00" from="2011" to="525" type="car" />
    <trip id="1198_0" depart="23165.00" from="1689" to="1697" type="car" />
    <trip id="47_0" depart="23201.00" from="104" to="806" type="car" />
    <trip id="1967_0" depart="23218.00" from="338" to="322" type="car" />
    <trip id="527_0" depart="23219.00" from="1396" to="11" type="car" />
    <trip id="384_0" depart="23460.00" from="961" to="866" type="car" />
    <trip id="966_0" depart="23470.00" from="257" to="282" type="car" />
    <trip id="2237_0" depart="23631.00" from="1187" to="1426" type="car" />
    <trip id="2114_0" depart="23649.00" from="544" to="1089" type="car" />
    <trip id="2329_0" depart="23697.00" from="450" to="1535" type="car" />
    <trip id="1475_0" depart="23716.00" from="1807" to="2068" type="car" />
    <trip id="395_0" depart="23784.00" from="1954" to="689" type="car" />
    <trip id="778_0" depart="23842.00" from="1661" to="592" type="car" />
    <trip id="1147_0" depart="23899.00" from="1499" to="1071" type="car" />
    <trip id="1514_0" depart="24035.00" from="1209" to="2024" type="car" />
    <trip id="1266_0" depart="24089.00" from="768" to="514" type="car" />
    <trip id="1873_0" depart="24179.00" from="1667" to="1309" type="car" />
    <trip id="911_0" depart="24246.00" from="500" to="1473" type="car" />
    <trip id="1518_0" depart="24287.00" from="476" to="1347" type="car" />
    <trip id="574_0" depart="24318.00" from="1184" to="1670" type="car" />
    <trip id="782_0" depart="24321.00" from="894" to="852" type="car" />
    <trip id="743_0" depart="24472.00" from="741" to="664" type="car" />
    <trip id="1594_0" depart="24568.00" from="450" to="867" type="car" />
    <trip id="686_0" depart="24691.00" from="499" to="657" type="car" />
    <trip id="1715_0" depart="24737.00" from="479" to="1494" type="car" />
    <trip id="1541_0" depart="24738.00" from="1777" to="683" type="car" />
    <trip id="2038_0" depart="24813.00" from="207" to="1387" type="car" />
    <trip id="1468_0" depart="24853.00" from="4" to="1365" type="car" />
    <trip id="2378_0" depart="24893.00" from="1073" to="157" type="car" />
    <trip id="232_0" depart="24904.00" from="1322" to="1252" type="car" />
    <trip id="1457_0" depart="24916.00" from="1745" to="1046" type="car" />
    <trip id="2049_0" depart="24939.00" from="1563" to="1488" type="car" />
    <trip id="44_0" depart="24997.00" from="1541" to="762" type="car" />
    <trip id="921_0" depart="25026.00" from="144" to="378" type="car" />
    <trip id="1938_0" depart="25039.00" from="143" to="2107" type="car" />
    <trip id="584_0" depart="25071.00" from="838" to="1217" type="car" />
    <trip id="992_0" depart="25079.00" from="2036" to="62" type="car" />
    <trip id="1279_0" depart="25167.00" from="568" to="436" type="car" />
    <trip id="826_0" depart="25169.00" from="1369" to="596" type="car" />
    <trip id="141_0" depart="25241.00" from="720" to="894" type="car" />
    <trip id="396_0" depart="25365.00" from="1083" to="124" type="car" />
    <trip id="678_0" depart="25375.00" from="282" to="1591" type="car" />
    <trip id="1225_0" depart="25378.00" from="956" to="959" type="car" />
    <trip id="2277_0" depart="25380.00" from="95" to="208" type="car" />
    <trip id="841_0" depart="25416.00" from="1932" to="384" type="car" />
    <trip id="1994_0" depart="25422.00" from="621" to="1844" type="car" />
    <trip id="82_0" depart="25469.00" from="1735" to="1857" type="car" />
    <trip id="2381_0" depart="25477.00" from="2174" to="1685" type="car" />
    <trip id="1235_0" depart="25577.00" from="1537" to="612" type="car" />
    <trip id="68_0" depart="25638.00" from="1022" to="1481" type="car" />
    <trip id="2298_0" depart="25659.00" from="634" to="2194" type="car" />
    <trip id="2140_0" depart="25672.00" from="1507" to="1655" type="car" />
    <trip id="659_0" depart="25676.00" from="822" to="1828" type="car" />
    <trip id="102_0" depart="25696.00" from="863" to="1820" type="car" />
    <trip id="134_0" depart="25709.00" from="595" to="1156" type="car" />
    <trip id="612_0" depart="25716.00" from="1542" to="101" type="car" />
    <trip id="1826_0" depart="25729.00" from="2004" to="2199" type="car" />
    <trip id="388_0" depart="25734.00" from="1116" to="502" type="car" />
    <trip id="114_0" depart="25748.00" from="524" to="1214" type="car" />
    <trip id="1326_0" depart="25765.00" from="1292" to="1529" type="car" />
    <trip id="151_0" depart="25788.00" from="1042" to="1771" type="car" />
    <trip id="1067_0" depart="25805.00" from="1576" to="1292" type="car" />
    <trip id="220_0" depart="25817.00" from="202" to="28" type="car" />
    <trip id="1965_0" depart="25820.00" from="349" to="304" type="car" />
    <trip id="473_0" depart="25851.00" from="1738" to="2161" type="car" />
    <trip id="1374_0" depart="25855.00" from="1643" to="149" type="car" />
    <trip id="2211_0" depart="25864.00" from="211" to="365" type="car" />
    <trip id="1157_0" depart="25926.00" from="146" to="428" type="car" />
    <trip id="394_0" depart="25959.00" from="1824" to="522" type="car" />
    <trip id="170_0" depart="25972.00" from="931" to="1154" type="car" />
    <trip id="1430_0" depart="26021.00" from="126" to="1178" type="car" />
    <trip id="1059_0" depart="26033.00" from="1666" to="126" type="car" />
    <trip id="1863_0" depart="26035.00" from="1890" to="394" type="car" />
    <trip id="1885_0" depart="26038.00" from="327" to="1181" type="car" />
    <trip id="482_0" depart="26043.00" from="1847" to="1588" type="car" />
    <trip id="2361_0" depart="26066.00" from="1617" to="1604" type="car" />
    <trip id="1307_0" depart="26068.00" from="597" to="1040" type="car" />
    <trip id="793_0" depart="26080.00" from="1373" to="305" type="car" />
    <trip id="794_0" depart="26143.00" from="555" to="647" type="car" />
    <trip id="2025_0" depart="26161.00" from="922" to="1878" type="car" />
    <trip id="960_0" depart="26180.00" from="1767" to="729" type="car" />
    <trip id="168_0" depart="26212.00" from="451" to="332" type="car" />
    <trip id="907_0" depart="26242.00" from="2113" to="1524" type="car" />
    <trip id="339_0" depart="26259.00" from="1601" to="1290" type="car" />
    <trip id="2126_0" depart="26279.00" from="152" to="661" type="car" />
    <trip id="766_0" depart="26296.00" from="1121" to="160" type="car" />
    <trip id="1069_0" depart="26298.00" from="711" to="1684" type="car" />
    <trip id="1859_0" depart="26299.00" from="897" to="1184" type="car" />
    <trip id="2118_0" depart="26307.00" from="1321" to="1349" type="car" />
    <trip id="132_0" depart="26325.00" from="1848" to="809" type="car" />
    <trip id="908_0" depart="26333.00" from="1968" to="1834" type="car" />
    <trip id="415_0" depart="26352.00" from="14" to="1637" type="car" />
    <trip id="1643_0" depart="26354.00" from="2" to="98" type="car" />
    <trip id="1992_0" depart="26389.00" from="1122" to="1289" type="car" />
    <trip id="1546_0" depart="26428.00" from="1177" to="338" type="car" />
    <trip id="144_0" depart="26432.00" from="607" to="327" type="car" />
    <trip id="726_0" depart="26432.00" from="1289" to="1797" type="car" />
    <trip id="1285_0" depart="26435.00" from="72" to="1714" type="car" />
    <trip id="1606_0" depart="26463.00" from="1794" to="281" type="car" />
    <trip id="2407_0" depart="26469.00" from="799" to="880" type="car" />
    <trip id="1263_0" depart="26476.00" from="291" to="1066" type="car" />
    <trip id="1251_0" depart="26491.00" from="883" to="247" type="car" />
    <trip id="1731_0" depart="26498.00" from="227" to="379" type="car" />
    <trip id="2446_0" depart="26515.00" from="41" to="1209" type="car" />
    <trip id="1094_0" depart="26519.00" from="1842" to="2021" type="car" />
    <trip id="1951_0" depart="26519.00" from="1003" to="939" type="car" />
    <trip id="1680_0" depart="26532.00" from="1808" to="1052" type="car" />
    <trip id="2297_0" depart="26563.00" from="764" to="1478" type="car" />
    <trip id="1658_0" depart="26574.00" from="627" to="1769" type="car" />
    <trip id="874_0" depart="26580.00" from="1954" to="22" type="car" />
    <trip id="602_0" depart="26583.00" from="1462" to="1573" type="car" />
    <trip id="948_0" depart="26589.00" from="1666" to="1437" type="car" />
    <trip id="1264_0" depart="26621.00" from="2048" to="733" type="car" />
    <trip id="37_0" depart="26685.00" from="1058" to="1052" type="car" />
    <trip id="2384_0" depart="26702.00" from="1596" to="1884" type="car" />
    <trip id="1083_0" depart="26713.00" from="1805" to="1731" type="car" />
    <trip id="1436_0" depart="26713.00" from="1831" to="855" type="car" />
    <trip id="1390_0" depart="26725.00" from="450" to="2155" type="car" />
    <trip id="2316_0" depart="26737.00" from="94" to="1201" type="car" />
    <trip id="1955_0" depart="26747.00" from="211" to="1384" type="car" />
    <trip id="1438_0" depart="26772.00" from="1860" to="1261" type="car" />
    <trip id="560_0" depart="26807.00" from="1343" to="1814" type="car" />
    <trip id="1239_0" depart="26831.00" from="884" to="360" type="car" />
    <trip id="1482_0" depart="26839.00" from="1923" to="638" type="car" />
    <trip id="423_0" depart="26850.00" from="425" to="1116" type="car" />
    <trip id="1987_0" depart="26876.00" from="652" to="886" type="car" />
    <trip id="1977_0" depart="26888.00" from="1330" to="2088" type="car" />
    <trip id="1919_0" depart="26909.00" from="1665" to="340" type="car" />
    <trip id="2036_0" depart="26921.00" from="1614" to="2151" type="car" />
    <trip id="2333_0" depart="26923.00" from="2112" to="233" type="car" />
    <trip id="1968_0" depart="26932.00" from="3" to="907" type="car" />
    <trip id="1051_0" depart="26940.00" from="305" to="349" type="car" />
    <trip id="1086_0" depart="26954.00" from="1718" to="1721" type="car" />
    <trip id="1677_0" depart="26958.00" from="667" to="35" type="car" />
    <trip id="2111_0" depart="27003.00" from="1596" to="442" type="car" />
    <trip id="267_0" depart="27003.00" from="1863" to="874" type="car" />
    <trip id="2162_0" depart="27029.00" from="2089" to="1319" type="car" />
    <trip id="983_0" depart="27043.00" from="556" to="129" type="car" />
    <trip id="1741_0" depart="27044.00" from="1306" to="65" type="car" />
    <trip id="508_0" depart="27065.00" from="1382" to="1335" type="car" />
    <trip id="368_0" depart="27075.00" from="2127" to="34" type="car" />
    <trip id="296_0" depart="27089.00" from="1393" to="406" type="car" />
    <trip id="1665_0" depart="27099.00" from="1186" to="1365" type="car" />
    <trip id="1081_0" depart="27106.00" from="38" to="726" type="car" />
    <trip id="2150_0" depart="27137.00" from="435" to="1114" type="car" />
    <trip id="2281_0" depart="27142.00" from="452" to="803" type="car" />
    <trip id="1159_0" depart="27145.00" from="208" to="1080" type="car" />
    <trip id="1425_0" depart="27152.00" from="42" to="408" type="car" />
    <trip id="616_0" depart="27158.00" from="396" to="514" type="car" />
    <trip id="1767_0" depart="27175.00" from="1073" to="549" type="car" />
    <trip id="1720_0" depart="27189.00" from="2006" to="715" type="car" />
    <trip id="1256_0" depart="27192.00" from="681" to="712" type="car" />
    <trip id="2120_0" depart="27197.00" from="159" to="335" type="car" />
    <trip id="2219_0" depart="27198.00" from="451" to="1321" type="car" />
    <trip id="16_0" depart="27214.00" from="1797" to="1494" type="car" />
    <trip id="513_0" depart="27224.00" from="1173" to="873" type="car" />
    <trip id="537_0" depart="27228.00" from="1718" to="70" type="car" />
    <trip id="850_0" depart="27235.00" from="1338" to="2159" type="car" />
    <trip id="1525_0" depart="27260.00" from="1850" to="684" type="car" />
    <trip id="1020_0" depart="27281.00" from="1994" to="1762" type="car" />
    <trip id="1999_0" depart="27290.00" from="912" to="1489" type="car" />
    <trip id="1972_0" depart="27298.00" from="525" to="1556" type="car" />
    <trip id="504_0" depart="27309.00" from="2147" to="613" type="car" />
    <trip id="1463_0" depart="27322.00" from="115" to="712" type="car" />
    <trip id="105_0" depart="27329.00" from="1966" to="1960" type="car" />
    <trip id="380_0" depart="27330.00" from="1204" to="118" type="car" />
    <trip id="2406_0" depart="27332.00" from="1864" to="1386" type="car" />
    <trip id="1942_0" depart="27333.00" from="860" to="1372" type="car" />
    <trip id="2380_0" depart="27362.00" from="372" to="2041" type="car" />
    <trip id="190_0" depart="27391.00" from="819" to="1192" type="car" />
    <trip id="947_0" depart="27424.00" from="413" to="693" type="car" />
    <trip id="895_0" depart="27458.00" from="261" to="932" type="car" />
    <trip id="1236_0" depart="27465.00" from="1709" to="2105" type="car" />
    <trip id="1527_0" depart="27465.00" from="2157" to="117" type="car" />
    <trip id="2003_0" depart="27467.00" from="1822" to="1436" type="car" />
    <trip id="1896_0" depart="27469.00" from="763" to="1489" type="car" />
    <trip id="19_0" depart="27472.00" from="1349" to="763" type="car" />
    <trip id="138_0" depart="27485.00" from="1688" to="2177" type="car" />
    <trip id="1795_0" depart="27499.00" from="469" to="1619" type="car" />
    <trip id="1945_0" depart="27507.00" from="1729" to="68" type="car" />
    <trip id="2349_0" depart="27518.00" from="1044" to="70" type="car" />
    <trip id="1755_0" depart="27519.00" from="149" to="642" type="car" />
    <trip id="1996_0" depart="27519.00" from="2073" to="1552" type="car" />
    <trip id="1587_0" depart="27522.00" from="1729" to="1392" type="car" />
    <trip id="1670_0" depart="27530.00" from="2126" to="1913" type="car" />
    <trip id="1280_0" depart="27546.00" from="1180" to="255" type="car" />
    <trip id="1579_0" depart="27546.00" from="1331" to="163" type="car" />
    <trip id="847_0" depart="27552.00" from="1816" to="651" type="car" />
    <trip id="194_0" depart="27571.00" from="308" to="1098" type="car" />
    <trip id="2122_0" depart="27590.00" from="845" to="278" type="car" />
    <trip id="1920_0" depart="27594.00" from="2153" to="1312" type="car" />
    <trip id="293_0" depart="27595.00" from="322" to="433" type="car" />
    <trip id="1179_0" depart="27612.00" from="1995" to="147" type="car" />
    <trip id="215_0" depart="27613.00" from="2120" to="25" type="car" />
    <trip id="298_0" depart="27634.00" from="1702" to="807" type="car" />
    <trip id="968_0" depart="27647.00" from="1354" to="814" type="car" />
    <trip id="243_0" depart="27651.00" from="2071" to="417" type="car" />
    <trip id="411_0" depart="27652.00" from="289" to="2132" type="car" />
    <trip id="942_0" depart="27655.00" from="948" to="2149" type="car" />
    <trip id="964_0" depart="27662.00" from="362" to="1251" type="car" />
    <trip id="1502_0" depart="27679.00" from="1896" to="232" type="car" />
    <trip id="22_0" depart="27686.00" from="1348" to="899" type="car" />
    <trip id="1354_0" depart="27689.00" from="104" to="115" type="car" />
    <trip id="1865_0" depart="27690.00" from="29" to="1778" type="car" />
    <trip id="1404_0" depart="27692.00" from="2111" to="415" type="car" />
    <trip id="78_0" depart="27697.00" from="1182" to="1316" type="car" />
    <trip id="1806_0" depart="27699.00" from="1933" to="2018" type="car" />
    <trip id="128_0" depart="27700.00" from="1265" to="623" type="car" />
    <trip id="812_0" depart="27701.00" from="2009" to="26" type="car" />
    <trip id="1296_0" depart="27702.00" from="1097" to="1812" type="car" />
    <trip id="149_0" depart="27709.00" from="721" to="304" type="car" />
    <trip id="1652_0" depart="27711.00" from="840" to="392" type="car" />
    <trip id="595_0" depart="27720.00" from="1437" to="547" type="car" />
    <trip id="135_0" depart="27729.00" from="1516" to="1933" type="car" />
    <trip id="15_0" depart="27738.00" from="477" to="191" type="car" />
    <trip id="1410_0" depart="27743.00" from="76" to="1968" type="car" />
    <trip id="86_0" depart="27764.00" from="931" to="118" type="car" />
    <trip id="580_0" depart="27770.00" from="1156" to="1575" type="car" />
    <trip id="1547_0" depart="27793.00" from="624" to="293" type="car" />
    <trip id="106_0" depart="27798.00" from="1821" to="1373" type="car" />
    <trip id="1953_0" depart="27798.00" from="1594" to="1568" type="car" />
    <trip id="2217_0" depart="27800.00" from="1192" to="1353" type="car" />
    <trip id="1434_0" depart="27806.00" from="1273" to="1073" type="car" />
    <trip id="1832_0" depart="27819.00" from="1684" to="1649" type="car" />
    <trip id="539_0" depart="27822.00" from="793" to="2093" type="car" />
    <trip id="1787_0" depart="27837.00" from="590" to="1091" type="car" />
    <trip id="2416_0" depart="27871.00" from="329" to="952" type="car" />
    <trip id="1976_0" depart="27873.00" from="38" to="627" type="car" />
    <trip id="2206_0" depart="27875.00" from="398" to="1445" type="car" />
    <trip id="569_0" depart="27876.00" from="80" to="2144" type="car" />
    <trip id="2087_0" depart="27890.00" from="1928" to="665" type="car" />
    <trip id="1800_0" depart="27892.00" from="1990" to="199" type="car" />
    <trip id="1634_0" depart="27896.00" from="1526" to="1037" type="car" />
    <trip id="1200_0" depart="27898.00" from="737" to="409" type="car" />
    <trip id="1397_0" depart="27922.00" from="1961" to="741" type="car" />
    <trip id="2383_0" depart="27925.00" from="1108" to="553" type="car" />
    <trip id="2415_0" depart="27926.00" from="783" to="1414" type="car" />
    <trip id="235_0" depart="27950.00" from="1466" to="1106" type="car" />
    <trip id="870_0" depart="27956.00" from="720" to="1036" type="car" />
    <trip id="1254_0" depart="27957.00" from="1883" to="2102" type="car" />
    <trip id="1072_0" depart="27959.00" from="1838" to="1552" type="car" />
    <trip id="456_0" depart="27960.00" from="1103" to="1814" type="car" />
    <trip id="1613_0" depart="27963.00" from="801" to="1111" type="car" />
    <trip id="2166_0" depart="27969.00" from="1876" to="1327" type="car" />
    <trip id="765_0" depart="27986.00" from="1357" to="912" type="car" />
    <trip id="605_0" depart="27993.00" from="1530" to="1014" type="car" />
    <trip id="1240_0" depart="27999.00" from="2199" to="82" type="car" />
    <trip id="1817_0" depart="28023.00" from="1195" to="67" type="car" />
    <trip id="684_0" depart="28029.00" from="50" to="1584" type="car" />
    <trip id="1962_0" depart="28034.00" from="281" to="1790" type="car" />
    <trip id="1621_0" depart="28046.00" from="840" to="1460" type="car" />
    <trip id="118_0" depart="28049.00" from="1667" to="1815" type="car" />
    <trip id="1785_0" depart="28066.00" from="161" to="322" type="car" />
    <trip id="457_0" depart="28070.00" from="364" to="1334" type="car" />
    <trip id="205_0" depart="28072.00" from="1186" to="1870" type="car" />
    <trip id="199_0" depart="28078.00" from="79" to="695" type="car" />
    <trip id="1886_0" depart="28081.00" from="836" to="508" type="car" />
    <trip id="30_0" depart="28097.00" from="453" to="852" type="car" />
    <trip id="52_0" depart="28098.00" from="609" to="839" type="car" />
    <trip id="1241_0" depart="28101.00" from="1998" to="387" type="car" />
    <trip id="121_0" depart="28107.00" from="814" to="1345" type="car" />
    <trip id="882_0" depart="28110.00" from="432" to="559" type="car" />
    <trip id="518_0" depart="28118.00" from="768" to="1875" type="car" />
    <trip id="1699_0" depart="28139.00" from="1216" to="1849" type="car" />
    <trip id="401_0" depart="28145.00" from="1030" to="1089" type="car" />
    <trip id="937_0" depart="28147.00" from="918" to="553" type="car" />
    <trip id="184_0" depart="28160.00" from="1610" to="471" type="car" />
    <trip id="2482_0" depart="28165.00" from="1092" to="197" type="car" />
    <trip id="1216_0" depart="28181.00" from="500" to="1115" type="car" />
    <trip id="2347_0" depart="28185.00" from="809" to="2128" type="car" />
    <trip id="854_0" depart="28196.00" from="410" to="55" type="car" />
    <trip id="977_0" depart="28200.00" from="655" to="440" type="car" />
    <trip id="1223_0" depart="28201.00" from="1274" to="1537" type="car" />
    <trip id="1300_0" depart="28212.00" from="1619" to="1445" type="car" />
    <trip id="2127_0" depart="28215.00" from="546" to="861" type="car" />
    <trip id="1841_0" depart="28220.00" from="1750" to="1701" type="car" />
    <trip id="2141_0" depart="28226.00" from="1051" to="2039" type="car" />
    <trip id="41_0" depart="28248.00" from="1134" to="497" type="car" />
    <trip id="2437_0" depart="28251.00" from="1392" to="1649" type="car" />
    <trip id="2110_0" depart="28255.00" from="1757" to="637" type="car" />
    <trip id="2319_0" depart="28264.00" from="225" to="807" type="car" />
    <trip id="2408_0" depart="28268.00" from="606" to="1602" type="car" />
    <trip id="1827_0" depart="28283.00" from="1641" to="152" type="car" />
    <trip id="1959_0" depart="28286.00" from="1667" to="1252" type="car" />
    <trip id="1856_0" depart="28289.00" from="1947" to="2107" type="car" />
    <trip id="2186_0" depart="28296.00" from="931" to="953" type="car" />
    <trip id="2294_0" depart="28307.00" from="264" to="1537" type="car" />
    <trip id="2436_0" depart="28307.00" from="1365" to="546" type="car" />
    <trip id="292_0" depart="28308.00" from="674" to="2037" type="car" />
    <trip id="2059_0" depart="28314.00" from="719" to="262" type="car" />
    <trip id="2086_0" depart="28319.00" from="164" to="1259" type="car" />
    <trip id="2453_0" depart="28319.00" from="672" to="1808" type="car" />
    <trip id="277_0" depart="28323.00" from="1007" to="604" type="car" />
    <trip id="1985_0" depart="28327.00" from="1823" to="917" type="car" />
    <trip id="92_0" depart="28337.00" from="1435" to="1031" type="car" />
    <trip id="863_0" depart="28349.00" from="2035" to="354" type="car" />
    <trip id="2475_0" depart="28372.00" from="1817" to="1533" type="car" />
    <trip id="1705_0" depart="28373.00" from="722" to="1871" type="car" />
    <trip id="2440_0" depart="28375.00" from="364" to="1075" type="car" />
    <trip id="2052_0" depart="28381.00" from="409" to="688" type="car" />
    <trip id="450_0" depart="28396.00" from="605" to="127" type="car" />
    <trip id="332_0" depart="28416.00" from="392" to="1605" type="car" />
    <trip id="1636_0" depart="28442.00" from="1299" to="409" type="car" />
    <trip id="1557_0" depart="28447.00" from="1448" to="766" type="car" />
    <trip id="2116_0" depart="28452.00" from="1630" to="1994" type="car" />
    <trip id="1577_0" depart="28460.00" from="290" to="30" type="car" />
    <trip id="295_0" depart="28466.00" from="1412" to="1556" type="car" />
    <trip id="2192_0" depart="28479.00" from="1039" to="305" type="car" />
    <trip id="648_0" depart="28480.00" from="1750" to="1907" type="car" />
    <trip id="1598_0" depart="28486.00" from="988" to="1741" type="car" />
    <trip id="801_0" depart="28493.00" from="1943" to="1856" type="car" />
    <trip id="1933_0" depart="28499.00" from="376" to="413" type="car" />
    <trip id="556_0" depart="28509.00" from="1563" to="1626" type="car" />
    <trip id="2395_0" depart="28517.00" from="2057" to="1405" type="car" />
    <trip id="568_0" depart="28521.00" from="2018" to="384" type="car" />
    <trip id="1386_0" depart="28526.00" from="453" to="480" type="car" />
    <trip id="1384_0" depart="28538.00" from="440" to="1617" type="car" />
    <trip id="1852_0" depart="28549.00" from="931" to="1989" type="car" />
    <trip id="822_0" depart="28550.00" from="784" to="1671" type="car" />
    <trip id="1294_0" depart="28551.00" from="1734" to="2079" type="car" />
    <trip id="546_0" depart="28558.00" from="1310" to="1478" type="car" />
    <trip id="1567_0" depart="28565.00" from="239" to="1537" type="car" />
    <trip id="2342_0" depart="28574.00" from="1162" to="1821" type="car" />
    <trip id="62_0" depart="28575.00" from="808" to="1767" type="car" />
    <trip id="320_0" depart="28581.00" from="875" to="851" type="car" />
    <trip id="1093_0" depart="28598.00" from="1865" to="200" type="car" />
    <trip id="2078_0" depart="28602.00" from="898" to="1313" type="car" />
    <trip id="1783_0" depart="28607.00" from="2197" to="1733" type="car" />
    <trip id="317_0" depart="28610.00" from="428" to="1522" type="car" />
    <trip id="2339_0" depart="28611.00" from="447" to="196" type="car" />
    <trip id="1883_0" depart="28615.00" from="1114" to="586" type="car" />
    <trip id="2405_0" depart="28620.00" from="189" to="1591" type="car" />
    <trip id="639_0" depart="28628.00" from="1862" to="846" type="car" />
    <trip id="1116_0" depart="28630.00" from="1615" to="1605" type="car" />
    <trip id="2279_0" depart="28630.00" from="1366" to="1122" type="car" />
    <trip id="1553_0" depart="28633.00" from="883" to="93" type="car" />
    <trip id="1002_0" depart="28651.00" from="210" to="498" type="car" />
    <trip id="533_0" depart="28651.00" from="1778" to="1764" type="car" />
    <trip id="2091_0" depart="28652.00" from="2054" to="105" type="car" />
    <trip id="1888_0" depart="28659.00" from="262" to="1143" type="car" />
    <trip id="1870_0" depart="28662.00" from="530" to="518" type="car" />
    <trip id="417_0" depart="28662.00" from="1156" to="1883" type="car" />
    <trip id="831_0" depart="28662.00" from="2077" to="296" type="car" />
    <trip id="2227_0" depart="28667.00" from="821" to="308" type="car" />
    <trip id="1706_0" depart="28670.00" from="824" to="437" type="car" />
    <trip id="2124_0" depart="28674.00" from="1636" to="1949" type="car" />
    <trip id="137_0" depart="28682.00" from="860" to="651" type="car" />
    <trip id="650_0" depart="28690.00" from="1036" to="1804" type="car" />
    <trip id="877_0" depart="28690.00" from="44" to="67" type="car" />
    <trip id="150_0" depart="28694.00" from="671" to="1299" type="car" />
    <trip id="2170_0" depart="28696.00" from="2126" to="83" type="car" />
    <trip id="929_0" depart="28697.00" from="691" to="70" type="car" />
    <trip id="1868_0" depart="28700.00" from="1959" to="589" type="car" />
    <trip id="752_0" depart="28707.00" from="160" to="761" type="car" />
    <trip id="467_0" depart="28720.00" from="2070" to="1716" type="car" />
    <trip id="322_0" depart="28722.00" from="1947" to="1948" type="car" />
    <trip id="1723_0" depart="28723.00" from="2053" to="1511" type="car" />
    <trip id="1084_0" depart="28726.00" from="324" to="871" type="car" />
    <trip id="1313_0" depart="28726.00" from="2159" to="575" type="car" />
    <trip id="2447_0" depart="28736.00" from="2124" to="1281" type="car" />
    <trip id="2055_0" depart="28740.00" from="507" to="913" type="car" />
    <trip id="1891_0" depart="28752.00" from="1423" to="451" type="car" />
    <trip id="1558_0" depart="28762.00" from="1081" to="1029" type="car" />
    <trip id="193_0" depart="28763.00" from="1701" to="1834" type="car" />
    <trip id="1821_0" depart="28765.00" from="1361" to="1620" type="car" />
    <trip id="2296_0" depart="28766.00" from="869" to="1829" type="car" />
    <trip id="1144_0" depart="28767.00" from="2099" to="1669" type="car" />
    <trip id="1341_0" depart="28782.00" from="368" to="195" type="car" />
    <trip id="1711_0" depart="28788.00" from="513" to="1030" type="car" />
    <trip id="629_0" depart="28788.00" from="892" to="339" type="car" />
    <trip id="2180_0" depart="28790.00" from="1430" to="369" type="car" />
    <trip id="1070_0" depart="28807.00" from="988" to="386" type="car" />
    <trip id="840_0" depart="28819.00" from="869" to="574" type="car" />
    <trip id="1025_0" depart="28820.00" from="1192" to="1099" type="car" />
    <trip id="64_0" depart="28820.00" from="2014" to="115" type="car" />
    <trip id="2253_0" depart="28824.00" from="1593" to="1534" type="car" />
    <trip id="756_0" depart="28825.00" from="333" to="936" type="car" />
    <trip id="1489_0" depart="28852.00" from="1337" to="1270" type="car" />
    <trip id="2366_0" depart="28854.00" from="128" to="1191" type="car" />
    <trip id="2034_0" depart="28857.00" from="13" to="526" type="car" />
    <trip id="2306_0" depart="28860.00" from="606" to="1110" type="car" />
    <trip id="17_0" depart="28873.00" from="227" to="352" type="car" />
    <trip id="1250_0" depart="28874.00" from="2200" to="734" type="car" />
    <trip id="2093_0" depart="28878.00" from="829" to="459" type="car" />
    <trip id="195_0" depart="28881.00" from="263" to="367" type="car" />
    <trip id="1849_0" depart="28884.00" from="1322" to="243" type="car" />
    <trip id="103_0" depart="28888.00" from="748" to="1681" type="car" />
    <trip id="1653_0" depart="28898.00" from="875" to="555" type="car" />