<?xml version="1.0" encoding="UTF-8"?>
<!DOCTYPE network SYSTEM "http://www.matsim.org/files/dtd/network_v2.dtd">
<network>

<!-- ====================================================================== -->

	<nodes>
		<node id="10100994112" x="176312.41268325067" y="4953615.907801018" >
		</node>
		<node id="10101023022" x="176217.21619505918" y="4953658.2372040795" >
		</node>
		<node id="10101023044" x="176050.9465073343" y="4953754.740969544" >
		</node>
		<node id="10101023046" x="176542.06093627872" y="4953565.912600505" >
		</node>
		<node id="10101023047" x="176539.98562714795" y="4953561.138940024" >
		</node>
		<node id="10101023048" x="176539.17354593496" y="4953557.148301769" >
		</node>
		<node id="10101023049" x="176577.8861937627" y="4953535.562797901" >
		</node>
		<node id="10101023050" x="176580.4805948662" y="4953538.484083948" >
		</node>
		<node id="10101023051" x="176583.52488670096" y="4953543.086675459" >
		</node>
		<node id="10101023052" x="176585.28144485143" y="4953546.417467091" >
		</node>
		<node id="10101023094" x="176256.14569056523" y="4953654.145140888" >
		</node>
		<node id="10559714130" x="176150.7848634238" y="4953685.392738582" >
		</node>
		<node id="10564569753" x="179858.33503345953" y="4952924.665306642" >
		</node>
		<node id="10564569754" x="179872.43213028152" y="4952924.611723342" >
		</node>
		<node id="10564569755" x="180022.2059618433" y="4952866.314288568" >
		</node>
		<node id="10564569756" x="180163.88156151026" y="4952796.284089214" >
		</node>
		<node id="10564569757" x="180265.64528948156" y="4952744.0809653" >
		</node>
		<node id="1076629757" x="177374.17900291434" y="4953027.680005782" >
		</node>
		<node id="1076629758" x="177376.20216558885" y="4953034.282824192" >
		</node>
		<node id="1076629761" x="177375.83187828725" y="4953041.1835038485" >
		</node>
		<node id="1076629764" x="177359.71571630915" y="4953056.343948218" >
		</node>
		<node id="1076629766" x="177352.77471208794" y="4953056.301283075" >
		</node>
		<node id="1076629767" x="177346.2641129649" y="4953053.898500694" >
		</node>
		<node id="1076629769" x="177338.08209274284" y="4953044.775097473" >
		</node>
		<node id="1076629770" x="177336.41860304557" y="4953038.054074115" >
		</node>
		<node id="1076629771" x="177337.16260044574" y="4953031.1569711985" >
		</node>
		<node id="1076629776" x="177351.62955225748" y="4953017.34847118" >
		</node>
		<node id="1076629777" x="177358.5620136045" y="4953016.901574154" >
		</node>
		<node id="1076629780" x="177365.2248502092" y="4953018.851311688" >
		</node>
		<node id="1076629789" x="177655.46661274682" y="4952706.229889874" >
		</node>
		<node id="1076629791" x="177656.8253464513" y="4952692.854338512" >
		</node>
		<node id="1076629793" x="177661.55490294" y="4952688.241575751" >
		</node>
		<node id="1076629794" x="177671.95741400134" y="4952686.285372738" >
		</node>
		<node id="1076629795" x="177681.0361821368" y="4952691.722880048" >
		</node>
		<node id="1076629797" x="177684.1725092933" y="4952699.929446657" >
		</node>
		<node id="1076629799" x="177678.934455611" y="4952712.184703059" >
		</node>
		<node id="1076629800" x="177667.29086504597" y="4952715.550367186" >
		</node>
		<node id="1076629802" x="177002.58852560783" y="4952511.843402242" >
		</node>
		<node id="1076629803" x="176999.01711398776" y="4952514.338502833" >
		</node>
		<node id="1076629804" x="176984.67679694988" y="4952513.062924095" >
		</node>
		<node id="1076629805" x="176982.34319514572" y="4952510.907942786" >
		</node>
		<node id="1076629806" x="176979.22864700417" y="4952504.426647098" >
		</node>
		<node id="1076629807" x="176979.0721502655" y="4952500.3474799935" >
		</node>
		<node id="1076629808" x="176985.11411359027" y="4952490.356510526" >
		</node>
		<node id="1076629809" x="176988.69218486198" y="4952488.629470444" >
		</node>
		<node id="1076629810" x="176998.08074466878" y="4952488.961338802" >
		</node>
		<node id="1076629811" x="177002.14873825683" y="4952491.463826919" >
		</node>
		<node id="1076629812" x="177006.6234118351" y="4952499.391581854" >
		</node>
		<node id="1076629813" x="177006.67915658333" y="4952503.99919394" >
		</node>
		<node id="1076629814" x="177526.03562851407" y="4952377.55460934" >
		</node>
		<node id="1076629815" x="177514.36397230177" y="4952385.142494153" >
		</node>
		<node id="1076629816" x="177497.37798143178" y="4952384.053657472" >
		</node>
		<node id="1076629817" x="177484.46862678748" y="4952370.533631289" >
		</node>
		<node id="1076629818" x="177483.4500429313" y="4952356.196629798" >
		</node>
		<node id="1076629819" x="177491.4210557434" y="4952343.114195502" >
		</node>
		<node id="1076629820" x="177508.7528366376" y="4952337.281336825" >
		</node>
		<node id="1076629822" x="177525.99817552237" y="4952345.785063149" >
		</node>
		<node id="1076629825" x="177531.83253792534" y="4952359.937099417" >
		</node>
		<node id="1076629832" x="177892.77329440432" y="4952341.710817421" >
		</node>
		<node id="1076629833" x="177890.06900214497" y="4952343.271216084" >
		</node>
		<node id="1076629835" x="177886.38081270776" y="4952343.911887377" >
		</node>
		<node id="1076629838" x="177880.49809254863" y="4952341.833535992" >
		</node>
		<node id="1076629840" x="177878.6464599999" y="4952339.932601983" >
		</node>
		<node id="1076629848" x="177877.07884247636" y="4952336.714570011" >
		</node>
		<node id="1076629850" x="177876.89098502672" y="4952332.314058492" >
		</node>
		<node id="1076629852" x="177878.6158170352" y="4952328.330334273" >
		</node>
		<node id="1076629853" x="177880.30715475365" y="4952326.54209064" >
		</node>
		<node id="1076629856" x="177887.20768554322" y="4952324.326793728" >
		</node>
		<node id="1076629859" x="177890.05237688136" y="4952324.942058482" >
		</node>
		<node id="1076629862" x="177893.14265005878" y="4952326.814579748" >
		</node>
		<node id="1076629867" x="177895.98094514105" y="4952331.283249418" >
		</node>
		<node id="1076629869" x="177896.38505315298" y="4952333.646200222" >
		</node>
		<node id="1131728902" x="179085.83134970878" y="4954586.78025797" >
		</node>
		<node id="1131728912" x="180311.67065742245" y="4956306.923332612" >
		</node>
		<node id="1131728913" x="179097.0387229821" y="4954583.494244895" >
		</node>
		<node id="1131728995" x="179041.0495613495" y="4954525.044085035" >
		</node>
		<node id="1131729107" x="179662.66923179862" y="4955896.974905379" >
		</node>
		<node id="1131729116" x="181422.89994543215" y="4957313.579813294" >
		</node>
		<node id="1131729134" x="181233.3273719538" y="4957118.917685436" >
		</node>
		<node id="1131729182" x="179274.50830098125" y="4954434.130449017" >
		</node>
		<node id="1131729203" x="180380.9927157848" y="4956431.479663775" >
		</node>
		<node id="1131729216" x="182201.12764148542" y="4957630.347451808" >
		</node>
		<node id="1131729226" x="181372.08153839107" y="4957288.621136888" >
		</node>
		<node id="1131729260" x="179118.54863121163" y="4954575.185555359" >
		</node>
		<node id="1131729363" x="179069.69414279237" y="4954575.790369683" >
		</node>
		<node id="1131729380" x="179898.36014037096" y="4954130.954450363" >
		</node>
		<node id="1131729385" x="179516.5904179591" y="4955829.447274206" >
		</node>
		<node id="1131729423" x="179501.45446644782" y="4954371.478250684" >
		</node>
		<node id="1131729452" x="178837.69681294909" y="4954604.32249548" >
		</node>
		<node id="1131729483" x="181269.48414212232" y="4957154.121634344" >
		</node>
		<node id="1131729498" x="181162.188731361" y="4957076.291247904" >
		</node>
		<node id="1131729516" x="180578.12906003388" y="4956669.4762470415" >
		</node>
		<node id="1131729533" x="179306.88462592114" y="4954420.293181732" >
		</node>
		<node id="1131729559" x="182103.1097783011" y="4957618.925449448" >
		</node>
		<node id="1131729567" x="178881.99555375573" y="4955179.973366066" >
		</node>
		<node id="1131729584" x="181328.88513907482" y="4957249.644718082" >
		</node>
		<node id="1131729631" x="179167.22714573762" y="4954537.6631623665" >
		</node>
		<node id="1131729722" x="179077.6186335532" y="4954584.616557376" >
		</node>
		<node id="1131729791" x="179086.8499125298" y="4953793.384238339" >
		</node>
		<node id="1131729829" x="181356.66796156904" y="4957277.913701322" >
		</node>
		<node id="1131729832" x="179016.32776526833" y="4954520.550652749" >
		</node>
		<node id="1131729927" x="179428.77128207166" y="4954390.536171028" >
		</node>
		<node id="1131729956" x="181895.13116773253" y="4957524.572922317" >
		</node>
		<node id="1131729963" x="181276.01275600813" y="4957163.4310105555" >
		</node>
		<node id="1131730012" x="179222.9348701418" y="4954474.346004781" >
		</node>
		<node id="1131730015" x="180980.2961021458" y="4956972.077668265" >
		</node>
		<node id="1131730025" x="180586.1658943611" y="4956676.171365271" >
		</node>
		<node id="1131730029" x="180135.26227404253" y="4956178.059572552" >
		</node>
		<node id="122006264" x="179382.12863657513" y="4952512.777890518" >
		</node>
		<node id="122006267" x="179211.51944615872" y="4952863.0722008785" >
		</node>
		<node id="122006271" x="179138.17675786384" y="4952961.273772551" >
		</node>
		<node id="122006274" x="179107.33530243603" y="4952990.780944585" >
		</node>
		<node id="122006276" x="178983.3022488106" y="4953071.862239019" >
		</node>
		<node id="122006279" x="178576.92937132012" y="4953216.750709218" >
		</node>
		<node id="122006281" x="178534.1850015677" y="4953237.633429998" >
		</node>
		<node id="122006284" x="178432.6135737172" y="4953308.319840945" >
		</node>
		<node id="122006295" x="177265.53033975972" y="4954299.881454055" >
		</node>
		<node id="122006296" x="177227.49686236546" y="4954342.276191612" >
		</node>
		<node id="1234767915" x="176681.1824138197" y="4953211.99753801" >
		</node>
		<node id="1234767917" x="176586.6135263854" y="4953555.549299239" >
		</node>
		<node id="1234767925" x="176646.20805808326" y="4953214.017619988" >
		</node>
		<node id="1234767926" x="176658.27256044472" y="4953189.893061644" >
		</node>
		<node id="1234767928" x="176539.77124395355" y="4953545.9263044065" >
		</node>
		<node id="1234767930" x="176649.94691743836" y="4953210.433653433" >
		</node>
		<node id="1234767935" x="176478.29959658725" y="4953283.095033115" >
		</node>
		<node id="1234767937" x="176554.25787074486" y="4953576.314885097" >
		</node>
		<node id="1234767938" x="176465.77217435912" y="4953275.783036732" >
		</node>
		<node id="1234767941" x="176578.9053471515" y="4953571.42639664" >
		</node>
		<node id="1234767944" x="176443.0649163766" y="4953213.355501425" >
		</node>
		<node id="1234767946" x="176550.35811494797" y="4953501.072825217" >
		</node>
		<node id="1234767950" x="176571.614682451" y="4953515.5756779425" >
		</node>
		<node id="1234767952" x="176598.02659438777" y="4953513.694727177" >
		</node>
		<node id="1234767954" x="176666.7195637831" y="4953202.064896418" >
		</node>
		<node id="1314391424" x="176855.66469529923" y="4952173.830326793" >
		</node>
		<node id="1314391490" x="176863.06693760847" y="4952177.825104933" >
		</node>
		<node id="1314391506" x="177480.67486640916" y="4952349.4977278" >
		</node>
		<node id="1345262963" x="176976.54941684532" y="4952484.092348546" >
		</node>
		<node id="1345262968" x="176972.7639771566" y="4952480.406425548" >
		</node>
		<node id="1351405389" x="176478.3571902138" y="4952142.274884958" >
		</node>
		<node id="1351405391" x="176554.3237520238" y="4952151.641467507" >
		</node>
		<node id="1351405392" x="176549.653373905" y="4952153.623935997" >
		</node>
		<node id="1351405393" x="176544.0305676043" y="4952154.050514296" >
		</node>
		<node id="1351405394" x="176546.81193007441" y="4952154.1895238245" >
		</node>
		<node id="1351405808" x="176584.93331368768" y="4952120.941501049" >
		</node>
		<node id="1351412329" x="176428.89208840823" y="4952234.023521309" >
		</node>
		<node id="1351412335" x="176967.63491518935" y="4952471.4757757215" >
		</node>
		<node id="1351412517" x="176456.97223532508" y="4952141.787838516" >
		</node>
		<node id="1352881132" x="177691.9026094147" y="4952215.712432075" >
		</node>
		<node id="1352896978" x="177314.46320554736" y="4952456.272762139" >
		</node>
		<node id="1352896984" x="177246.96559895272" y="4952458.612630729" >
		</node>
		<node id="1352896986" x="177235.6925734069" y="4952459.6998613775" >
		</node>
		<node id="1352896988" x="177116.1191340508" y="4952470.113854734" >
		</node>
		<node id="1352918024" x="176605.49233894818" y="4952120.969227567" >
		</node>
		<node id="1352918059" x="176963.40565519076" y="4952482.26691885" >
		</node>
		<node id="1352947074" x="176960.13712425192" y="4952470.169534124" >
		</node>
		<node id="1352947084" x="177434.35303752916" y="4952456.481697009" >
		</node>
		<node id="1352947085" x="177453.06764159555" y="4952455.579666326" >
		</node>
		<node id="1352947086" x="177324.65581415076" y="4952464.260000636" >
		</node>
		<node id="1352947087" x="177320.93130798527" y="4952464.490782905" >
		</node>
		<node id="1352947092" x="177304.98885027278" y="4952465.510706243" >
		</node>
		<node id="1352947098" x="177251.12180078996" y="4952468.76142031" >
		</node>
		<node id="1352947099" x="177226.21252494236" y="4952470.252288443" >
		</node>
		<node id="1352947100" x="177437.81960723863" y="4952464.448952373" >
		</node>
		<node id="1352947101" x="177326.9816750664" y="4952472.462428182" >
		</node>
		<node id="1352947102" x="177321.7675953518" y="4952472.789965786" >
		</node>
		<node id="1352947111" x="177306.00808532094" y="4952473.811876833" >
		</node>
		<node id="1359255622" x="177474.28752739122" y="4952409.217191733" >
		</node>
		<node id="1359255623" x="177481.29635066428" y="4952414.5797480075" >
		</node>
		<node id="1359255735" x="177698.6911747246" y="4952568.566406528" >
		</node>
		<node id="1359261117" x="177640.54900497198" y="4952340.451743731" >
		</node>
		<node id="1359261119" x="177636.42077902192" y="4952344.377424377" >
		</node>
		<node id="1359262854" x="177659.88479401957" y="4952660.696270098" >
		</node>
		<node id="1359262856" x="177642.36988114734" y="4952676.371156436" >
		</node>
		<node id="1419841622" x="177046.36034173652" y="4952809.562550069" >
		</node>
		<node id="1419841657" x="177183.8844041903" y="4952834.118273834" >
		</node>
		<node id="1419841705" x="177399.50730430405" y="4952993.9181541875" >
		</node>
		<node id="1433699948" x="179056.85372961254" y="4952735.685271977" >
		</node>
		<node id="1433699956" x="179064.02575422224" y="4952735.417631923" >
		</node>
		<node id="1433699957" x="179053.7326967126" y="4952736.6979740625" >
		</node>
		<node id="1433699958" x="179068.00961137284" y="4952736.411023406" >
		</node>
		<node id="1433699959" x="179054.96267750236" y="4952738.095596718" >
		</node>
		<node id="1433699960" x="179042.31288489676" y="4952743.769363402" >
		</node>
		<node id="1433699961" x="179083.03940070863" y="4952741.83277616" >
		</node>
		<node id="1433699963" x="179048.17693490314" y="4952745.170334027" >
		</node>
		<node id="1433699964" x="179032.90080583346" y="4952749.337781529" >
		</node>
		<node id="1433699966" x="179027.51874001365" y="4952751.554286302" >
		</node>
		<node id="1433699967" x="179045.95416392596" y="4952754.334376102" >
		</node>
		<node id="1433699968" x="179025.34530671954" y="4952759.312761705" >
		</node>
		<node id="1433699969" x="179050.0734798457" y="4952766.200782976" >
		</node>
		<node id="1433699970" x="179030.3975372619" y="4952770.119385861" >
		</node>
		<node id="1433699971" x="179062.00585573417" y="4952771.832230188" >
		</node>
		<node id="1433699972" x="179119.33597057732" y="4952770.049986322" >
		</node>
		<node id="1433699973" x="179064.38783943158" y="4952777.214882011" >
		</node>
		<node id="1433699974" x="179042.8393389188" y="4952780.079591962" >
		</node>
		<node id="1433699975" x="179129.38795742614" y="4952785.340781741" >
		</node>
		<node id="1433699976" x="179035.2146578593" y="4952794.735080188" >
		</node>
		<node id="1433699977" x="179041.98544822558" y="4952807.015247606" >
		</node>
		<node id="1433699978" x="179223.93100537034" y="4952810.5620237375" >
		</node>
		<node id="1433699979" x="179055.48967440816" y="4952822.35693692" >
		</node>
		<node id="1433699980" x="179199.9743385443" y="4952822.699620301" >
		</node>
		<node id="1433699981" x="179171.8006559763" y="4952824.835401847" >
		</node>
		<node id="1433699982" x="179101.18398284324" y="4952835.295843923" >
		</node>
		<node id="1433699983" x="179071.73101646552" y="4952835.201699272" >
		</node>
		<node id="1433699984" x="179087.72169468744" y="4952839.172525976" >
		</node>
		<node id="1433699985" x="179132.92951587745" y="4952839.296166574" >
		</node>
		<node id="1433699986" x="179249.63773086265" y="4952837.624834465" >
		</node>
		<node id="1433699994" x="179154.66536824772" y="4952854.4291326525" >
		</node>
		<node id="1433699995" x="179159.26617378736" y="4952854.2448982615" >
		</node>
		<node id="1433699996" x="179150.2835733447" y="4952855.181545198" >
		</node>
		<node id="1433699997" x="179142.75948020356" y="4952858.595792102" >
		</node>
		<node id="1433699998" x="179176.91589469003" y="4952857.376199187" >
		</node>
		<node id="1433699999" x="179137.90535215248" y="4952861.197985581" >
		</node>
		<node id="1433700000" x="179133.01961230522" y="4952865.082381219" >
		</node>
		<node id="1433700001" x="179123.32296209165" y="4952876.433217702" >
		</node>
		<node id="1433700002" x="179254.40348317515" y="4952868.579463509" >
		</node>
		<node id="1433700003" x="179120.38426587137" y="4952898.851126771" >
		</node>
		<node id="1433700004" x="179265.97188630974" y="4952895.198161463" >
		</node>
		<node id="1433700007" x="179243.43123012275" y="4952909.113787436" >
		</node>
		<node id="1433700008" x="179135.8250482118" y="4952920.377275948" >
		</node>
		<node id="1433700009" x="179153.43743785436" y="4952925.158462913" >
		</node>
		<node id="1433700010" x="179297.131863565" y="4952925.965535834" >
		</node>
		<node id="1433700011" x="179248.4150728468" y="4952925.269149652" >
		</node>
		<node id="1433700012" x="179184.54339020653" y="4952929.4135133475" >
		</node>
		<node id="1433700013" x="179257.6450113579" y="4952926.59204975" >
		</node>
		<node id="1433700014" x="179183.58648665744" y="4952933.82635492" >
		</node>
		<node id="1433700015" x="179128.67842287035" y="4952941.768361183" >
		</node>
		<node id="1433700016" x="179275.44037820987" y="4952937.455774265" >
		</node>
		<node id="1433700017" x="179257.86524625262" y="4952940.935224265" >
		</node>
		<node id="1433700018" x="179244.44482026977" y="4952946.769425741" >
		</node>
		<node id="1433700019" x="179183.7058088475" y="4952946.136696608" >
		</node>
		<node id="1433700020" x="179318.73185114103" y="4952947.174777344" >
		</node>
		<node id="1433700021" x="179185.77180583798" y="4952951.401459922" >
		</node>
		<node id="1433700022" x="179125.08941732429" y="4952958.9402052" >
		</node>
		<node id="1433700023" x="179236.27640187147" y="4952959.1242933525" >
		</node>
		<node id="1433700024" x="179193.1224683323" y="4952960.646226248" >
		</node>
		<node id="1433700025" x="179352.872708901" y="4952958.128316005" >
		</node>
		<node id="1433700026" x="179225.42458440643" y="4952965.944428613" >
		</node>
		<node id="1433700027" x="179209.25973013858" y="4952966.614482756" >
		</node>
		<node id="1433700028" x="179399.1377100536" y="4952959.715660887" >
		</node>
		<node id="1433700029" x="179208.85157696705" y="4952970.55460162" >
		</node>
		<node id="1433700030" x="179161.20392152504" y="4952975.050743516" >
		</node>
		<node id="1433700031" x="179139.59344600816" y="4952982.728977921" >
		</node>
		<node id="1433716816" x="178353.59113905957" y="4952493.461438554" >
		</node>
		<node id="1433716822" x="178350.55724260327" y="4952509.938044374" >
		</node>
		<node id="1433716823" x="178382.2474232578" y="4952531.276412551" >
		</node>
		<node id="1433716824" x="178536.09830996004" y="4952576.650901436" >
		</node>
		<node id="1433716825" x="178596.7147797984" y="4952598.353276588" >
		</node>
		<node id="1433716826" x="178571.53321253805" y="4952669.675099545" >
		</node>
		<node id="1433716827" x="178574.2395478777" y="4952694.4848629" >
		</node>
		<node id="1433716828" x="178522.32351325115" y="4952698.229322303" >
		</node>
		<node id="1433716829" x="178530.54018293432" y="4952713.822363413" >
		</node>
		<node id="1433716831" x="178478.3751650959" y="4952717.033933378" >
		</node>
		<node id="1433716844" x="178984.44843806222" y="4952727.148932438" >
		</node>
		<node id="1433716845" x="178874.56333074666" y="4952736.926291934" >
		</node>
		<node id="1433716846" x="178888.33905008808" y="4952744.136089734" >
		</node>
		<node id="1433716849" x="178197.02576891828" y="4952871.885644961" >
		</node>
		<node id="1433716850" x="178787.50948853703" y="4953097.531461741" >
		</node>
		<node id="1433716851" x="178783.4410232983" y="4953114.471344314" >
		</node>
		<node id="1433716852" x="178773.49405383854" y="4953127.160449278" >
		</node>
		<node id="1444329952" x="180163.01901196118" y="4953287.277865366" >
		</node>
		<node id="1444864630" x="179530.90229489584" y="4952936.555024152" >
		</node>
		<node id="1444874088" x="179670.07622855128" y="4952932.1494469" >
		</node>
		<node id="1444874089" x="179682.13115830737" y="4952935.6266595945" >
		</node>
		<node id="1444874156" x="180073.25146928534" y="4952969.605778872" >
		</node>
		<node id="1444874164" x="180072.586234699" y="4952973.981695804" >
		</node>
		<node id="1444874182" x="180071.6353619952" y="4952978.5276766755" >
		</node>
		<node id="1444874183" x="180070.57818204002" y="4952980.929735159" >
		</node>
		<node id="1444874186" x="180069.5745152997" y="4952983.128697403" >
		</node>
		<node id="1444874187" x="180068.4721691584" y="4952984.619866908" >
		</node>
		<node id="1444874188" x="180067.1925274146" y="4952985.741213655" >
		</node>
		<node id="1444874189" x="179874.0957283512" y="4953002.512867479" >
		</node>
		<node id="1444874190" x="179859.6263821631" y="4953004.511420897" >
		</node>
		<node id="1444874192" x="180037.7523213235" y="4953000.140841687" >
		</node>
		<node id="1444874194" x="180086.98503698176" y="4952998.289693889" >
		</node>
		<node id="1444874195" x="180036.07373035286" y="4953001.070401182" >
		</node>
		<node id="1444874198" x="180034.69411773654" y="4953002.419427555" >
		</node>
		<node id="1444874199" x="180086.72169436805" y="4953001.153495359" >
		</node>
		<node id="1444874200" x="180034.03687374195" y="4953003.910802008" >
		</node>
		<node id="1444874201" x="179846.77361054695" y="4953013.30055464" >
		</node>
		<node id="1444874202" x="180034.0477202176" y="4953005.892423608" >
		</node>
		<node id="1444874203" x="180085.558373412" y="4953004.139871617" >
		</node>
		<node id="1444874204" x="180082.96803159168" y="4953005.916398774" >
		</node>
		<node id="1444874205" x="179827.9392230679" y="4953020.0703101065" >
		</node>
		<node id="1444874209" x="179832.86069835623" y="4953018.823868208" >
		</node>
		<node id="1444874210" x="179875.0741340209" y="4953019.66906357" >
		</node>
		<node id="1444874211" x="179897.23050752084" y="4953023.146561053" >
		</node>
		<node id="1444874213" x="180040.58750481007" y="4953021.091307116" >
		</node>
		<node id="1444874214" x="180041.66029539815" y="4953022.530293293" >
		</node>
		<node id="1444874215" x="180043.17199645488" y="4953023.524355917" >
		</node>
		<node id="1444874216" x="180046.7032015063" y="4953023.571954959" >
		</node>
		<node id="1444874219" x="180044.9710837258" y="4953023.902837898" >
		</node>
		<node id="1444874220" x="179881.1179484824" y="4953035.9169210745" >
		</node>
		<node id="1444874221" x="179891.53070250514" y="4953037.059513342" >
		</node>
		<node id="1447327555" x="178751.35626176867" y="4954027.179960326" >
		</node>
		<node id="1450908791" x="179472.81004815892" y="4952923.917336471" >
		</node>
		<node id="1450908792" x="179477.62822224153" y="4952931.150117911" >
		</node>
		<node id="1450908793" x="179482.83728538203" y="4952935.212046722" >
		</node>
		<node id="1450908798" x="179773.8590446746" y="4953016.172991136" >
		</node>
		<node id="1450908799" x="180047.04696428764" y="4953343.005592905" >
		</node>
		<node id="1450908800" x="179992.64276436693" y="4953754.330332358" >
		</node>
		<node id="1450908801" x="180005.6265674833" y="4954059.607703193" >
		</node>
		<node id="1450910938" x="179468.5130897297" y="4952924.776679203" >
		</node>
		<node id="1450910943" x="179468.05887276446" y="4952931.792540848" >
		</node>
		<node id="1450910945" x="179467.1196990399" y="4952935.92604497" >
		</node>
		<node id="1450910947" x="179465.94679337076" y="4952939.514369805" >
		</node>
		<node id="1450910948" x="179461.2256437284" y="4952943.0339823915" >
		</node>
		<node id="1450910949" x="179497.58077056415" y="4952937.6088244105" >
		</node>
		<node id="1450910952" x="179433.69547667756" y="4952953.310401378" >
		</node>
		<node id="1450910959" x="179366.9834957443" y="4952959.7878671335" >
		</node>
		<node id="1461486116" x="179552.79582860472" y="4952940.968720083" >
		</node>
		<node id="1473360761" x="176479.91364368156" y="4953292.457718411" >
		</node>
		<node id="1473360772" x="176476.3371948601" y="4953299.7531944215" >
		</node>
		<node id="1473360775" x="176475.78718813142" y="4953308.121902495" >
		</node>
		<node id="1473360779" x="176474.7626655638" y="4953321.926673581" >
		</node>
		<node id="1476164942" x="178199.86404905206" y="4953371.9419070035" >
		</node>
		<node id="1476164945" x="178200.29433644016" y="4953373.55744336" >
		</node>
		<node id="1476164946" x="178200.23065574915" y="4953376.901435912" >
		</node>
		<node id="1476164947" x="178187.25528301793" y="4953378.083214919" >
		</node>
		<node id="1476164948" x="178199.72799291316" y="4953378.296244267" >
		</node>
		<node id="1476164949" x="178189.0392200445" y="4953379.430776684" >
		</node>
		<node id="1476164953" x="178190.95938159834" y="4953380.482006099" >
		</node>
		<node id="1476164955" x="178195.61027848237" y="4953381.307930807" >
		</node>
		<node id="1476164957" x="178412.23785609868" y="4953373.579172572" >
		</node>
		<node id="1476164959" x="178388.13512011716" y="4953379.6916994145" >
		</node>
		<node id="1476164961" x="178436.6043409687" y="4953379.135270431" >
		</node>
		<node id="1476164963" x="178458.64612814347" y="4953394.339746506" >
		</node>
		<node id="1476164965" x="178268.00504343846" y="4953482.954979272" >
		</node>
		<node id="1476164966" x="178249.85139566142" y="4953500.776038538" >
		</node>
		<node id="1476164968" x="178238.71604827273" y="4953503.4695573095" >
		</node>
		<node id="1476164970" x="178269.176083118" y="4953502.45147052" >
		</node>
		<node id="1476164972" x="178266.42760111787" y="4953505.9850403275" >
		</node>
		<node id="1476164987" x="178133.599406065" y="4953604.583833097" >
		</node>
		<node id="1476164995" x="178133.347943365" y="4953618.817143008" >
		</node>
		<node id="1476165000" x="177875.3327307626" y="4953691.396961214" >
		</node>
		<node id="1476165001" x="177880.93863174197" y="4953694.480128991" >
		</node>
		<node id="1476165002" x="178079.90697882598" y="4953701.58568978" >
		</node>
		<node id="1476165003" x="177880.7827074029" y="4953713.797942838" >
		</node>
		<node id="1476165004" x="178104.10843562614" y="4953717.2268362455" >
		</node>
		<node id="1476165006" x="177891.52340157446" y="4953727.560371677" >
		</node>
		<node id="1476165008" x="178086.92280049378" y="4953717.794919069" >
		</node>
		<node id="1476165015" x="177908.30617645703" y="4953733.248106662" >
		</node>
		<node id="1476165017" x="178109.1209385252" y="4953733.903543381" >
		</node>
		<node id="1476165018" x="178085.82633028738" y="4953734.99920521" >
		</node>
		<node id="1476165019" x="178106.2050700416" y="4953750.641808565" >
		</node>
		<node id="1476165020" x="177861.25907312962" y="4953769.718539972" >
		</node>
		<node id="1476165022" x="178062.5742909261" y="4953770.069028934" >
		</node>
		<node id="1476165023" x="178067.50841824757" y="4953779.60025641" >
		</node>
		<node id="1476165031" x="177840.0456584447" y="4953829.509915714" >
		</node>
		<node id="1476165033" x="177986.522603554" y="4953830.804051571" >
		</node>
		<node id="1476165035" x="177994.40078234067" y="4953839.609181508" >
		</node>
		<node id="1476165036" x="177835.3136128261" y="4953850.604227149" >
		</node>
		<node id="1476165042" x="177892.24820976862" y="4953907.90702414" >
		</node>
		<node id="1476165044" x="177882.79027008882" y="4953908.368203676" >
		</node>
		<node id="1476167527" x="177891.7378442703" y="4953917.420485763" >
		</node>
		<node id="1476167533" x="177902.8780190724" y="4953926.775323219" >
		</node>
		<node id="1476167541" x="177952.8952181129" y="4954079.849331298" >
		</node>
		<node id="1476167543" x="177959.5110871666" y="4954079.452180356" >
		</node>
		<node id="1476167545" x="177961.92663287005" y="4954080.4006392965" >
		</node>
		<node id="1476167547" x="177948.92959138047" y="4954082.552966641" >
		</node>
		<node id="1476167548" x="177964.71290236933" y="4954082.566697594" >
		</node>
		<node id="1476167549" x="177946.31137913524" y="4954087.572454076" >
		</node>
		<node id="1476167550" x="177967.0798550329" y="4954086.68024042" >
		</node>
		<node id="1476167551" x="177946.07240800856" y="4954089.78933745" >
		</node>
		<node id="1476167559" x="177967.5522389295" y="4954089.774766261" >
		</node>
		<node id="1476167561" x="177946.24930147734" y="4954091.740461206" >
		</node>
		<node id="1476167562" x="177967.39801110042" y="4954091.619925273" >
		</node>
		<node id="1476167563" x="177948.99087391334" y="4954097.149354396" >
		</node>
		<node id="1476167564" x="177965.3809148252" y="4954096.264171381" >
		</node>
		<node id="1476167565" x="177963.7042811241" y="4954098.018301971" >
		</node>