<?xml version="1.0" encoding="utf-8"?>
<!DOCTYPE population SYSTEM "http://www.matsim.org/files/dtd/population_v6.dtd">

<population>



<!-- ====================================================================== -->

	<person id="0">
		<attributes>
			<attribute name="drivelogic" class="java.lang.String" >org.matsim.contrib.smartcity.agent.CLASSDriverLogicBasic</attribute>
		</attributes>
		<plan selected="yes">
			<activity type="h" link="2492" max_dur="10:12:34" >
			</activity>
			<leg mode="car">
			</leg>
			<activity type="w" link="4261" start_time="10:19:44" end_time="18:55:12" >
			</activity>
			<leg mode="car">
			</leg>
			<activity type="h" link="2492" >
			</activity>
		</plan>

	</person>

<!-- ====================================================================== -->

	<person id="1">
		<attributes>
			<attribute name="drivelogic" class="java.lang.String" >org.matsim.contrib.smartcity.agent.CLASSDriverLogicBasic</attribute>
		</attributes>
		<plan selected="yes">
			<activity type="h" link="2767" max_dur="08:59:50" >
			</activity>
			<leg mode="car">
			</leg>
			<activity type="w" link="1876" start_time="09:00:50" end_time="18:30:23" >
			</activity>
			<leg mode="car">
			</leg>
			<activity type="h" link="2767" >
			</activity>
		</plan>

	</person>

<!-- ====================================================================== -->

	<person id="10">
		<attributes>
			<attribute name="drivelogic" class="java.lang.String" >org.matsim.contrib.smartcity.agent.CLASSDriverLogicBasic</attribute>
		</attributes>
		<plan selected="yes">
			<activity type="h" link="1605" max_dur="07:38:28" >
			</activity>
			<leg mode="car">
			</leg>
			<activity type="w" link="4896" start_time="07:42:58" end_time="17:26:17" >
			</activity>
			<leg mode="car">
			</leg>
			<activity type="h" link="1605" >
			</activity>
		</plan>

	</person>

<!-- ====================================================================== -->

	<person id="100">
		<attributes>
			<attribute name="drivelogic" class="java.lang.String" >org.matsim.contrib.smartcity.agent.CLASSDriverLogicBasic</attribute>
		</attributes>
		<plan selected="yes">
			<activity type="h" link="1833" max_dur="09:18:23" >
			</activity>
			<leg mode="car">
			</leg>
			<activity type="w" link="2277" start_time="09:20:06" end_time="18:16:27" >
			</activity>
			<leg mode="car">
			</leg>
			<activity type="h" link="1833" >
			</activity>
		</plan>

	</person>

<!-- ====================================================================== -->

	<person id="1000">
		<attributes>
			<attribute name="drivelogic" class="java.lang.String" >org.matsim.contrib.smartcity.agent.CLASSDriverLogicBasic</attribute>
		</attributes>
		<plan selected="yes">
			<activity type="h" link="1764" max_dur="08:00:38" >
			</activity>
			<leg mode="car">
			</leg>
			<activity type="w" link="4596" start_time="08:06:10" end_time="18:43:56" >
			</activity>
			<leg mode="car">
			</leg>
			<activity type="h" link="1764" >
			</activity>
		</plan>

	</person>

<!-- ====================================================================== -->

	<person id="1001">
		<attributes>
			<attribute name="drivelogic" class="java.lang.String" >org.matsim.contrib.smartcity.agent.CLASSDriverLogicBasic</attribute>
		</attributes>
		<plan selected="yes">
			<activity type="h" link="5066" max_dur="08:46:49" >
			</activity>
			<leg mode="car">
			</leg>
			<activity type="w" link="338" start_time="08:51:59" end_time="18:42:11" >
			</activity>
			<leg mode="car">
			</leg>
			<activity type="h" link="5066" >
			</activity>
		</plan>

	</person>

<!-- ====================================================================== -->

	<person id="1002">
		<attributes>
			<attribute name="drivelogic" class="java.lang.String" >org.matsim.contrib.smartcity.agent.CLASSDriverLogicBasic</attribute>
		</attributes>
		<plan selected="yes">
			<activity type="h" link="775" max_dur="08:09:41" >
			</activity>
			<leg mode="car">
			</leg>
			<activity type="w" link="5848" start_time="08:15:00" end_time="16:10:43" >
			</activity>
			<leg mode="car">
			</leg>
			<activity type="h" link="775" >
			</activity>
		</plan>

	</person>

<!-- ====================================================================== -->

	<person id="1003">
		<attributes>
			<attribute name="drivelogic" class="java.lang.String" >org.matsim.contrib.smartcity.agent.CLASSDriverLogicBasic</attribute>
		</attributes>
		<plan selected="yes">
			<activity type="h" link="3479" max_dur="08:27:39" >
			</activity>
			<leg mode="car">
			</leg>
			<activity type="w" link="629" start_time="08:34:31" end_time="19:07:21" >
			</activity>
			<leg mode="car">
			</leg>
			<activity type="h" link="3479" >
			</activity>
		</plan>

	</person>

<!-- ====================================================================== -->

	<person id="1004">
		<attributes>
			<attribute name="drivelogic" class="java.lang.String" >org.matsim.contrib.smartcity.agent.CLASSDriverLogicBasic</attribute>
		</attributes>
		<plan selected="yes">
			<activity type="h" link="2482" max_dur="08:54:03" >
			</activity>
			<leg mode="car">
			</leg>
			<activity type="w" link="1472" start_time="09:06:50" end_time="17:13:37" >
			</activity>
			<leg mode="car">
			</leg>
			<activity type="h" link="2482" >
			</activity>
		</plan>

	</person>

<!-- ====================================================================== -->

	<person id="1005">
		<attributes>
			<attribute name="drivelogic" class="java.lang.String" >org.matsim.contrib.smartcity.agent.CLASSDriverLogicBasic</attribute>
		</attributes>
		<plan selected="yes">
			<activity type="h" link="5883" max_dur="07:23:25" >
			</activity>
			<leg mode="car">
			</leg>
			<activity type="w" link="4012" start_time="07:25:52" end_time="18:28:51" >
			</activity>
			<leg mode="car">
			</leg>
			<activity type="h" link="5883" >
			</activity>
		</plan>

	</person>

<!-- ====================================================================== -->

	<person id="1006">
		<attributes>
			<attribute name="drivelogic" class="java.lang.String" >org.matsim.contrib.smartcity.agent.CLASSDriverLogicBasic</attribute>
		</attributes>
		<plan selected="yes">
			<activity type="h" link="276" max_dur="09:59:56" >
			</activity>
			<leg mode="car">
			</leg>
			<activity type="w" link="399" start_time="10:00:27" end_time="17:36:45" >
			</activity>
			<leg mode="car">
			</leg>
			<activity type="h" link="276" >
			</activity>
		</plan>

	</person>

<!-- ====================================================================== -->

	<person id="1007">
		<attributes>
			<attribute name="drivelogic" class="java.lang.String" >org.matsim.contrib.smartcity.agent.CLASSDriverLogicBasic</attribute>
		</attributes>
		<plan selected="yes">
			<activity type="h" link="3537" max_dur="08:50:05" >
			</activity>
			<leg mode="car">
			</leg>
			<activity type="w" link="1339" start_time="09:12:16" end_time="17:01:52" >
			</activity>
			<leg mode="car">
			</leg>
			<activity type="h" link="3537" >
			</activity>
		</plan>

	</person>

<!-- ====================================================================== -->

	<person id="1008">
		<attributes>
			<attribute name="drivelogic" class="java.lang.String" >org.matsim.contrib.smartcity.agent.CLASSDriverLogicBasic</attribute>
		</attributes>
		<plan selected="yes">
			<activity type="h" link="1603" max_dur="08:33:39" >
			</activity>
			<leg mode="car">
			</leg>
			<activity type="w" link="2445" start_time="08:38:31" end_time="16:36:57" >
			</activity>
			<leg mode="car">
			</leg>
			<activity type="h" link="1603" >
			</activity>
		</plan>

	</person>

<!-- ====================================================================== -->

	<person id="1009">
		<attributes>
			<attribute name="drivelogic" class="java.lang.String" >org.matsim.contrib.smartcity.agent.CLASSDriverLogicBasic</attribute>
		</attributes>
		<plan selected="yes">
			<activity type="h" link="3487" max_dur="09:36:57" >
			</activity>
			<leg mode="car">
			</leg>
			<activity type="w" link="2354" start_time="09:42:59" end_time="15:55:30" >
			</activity>
			<leg mode="car">
			</leg>
			<activity type="h" link="3487" >
			</activity>
		</plan>

	</person>

<!-- ====================================================================== -->

	<person id="101">
		<attributes>
			<attribute name="drivelogic" class="java.lang.String" >org.matsim.contrib.smartcity.agent.CLASSDriverLogicBasic</attribute>
		</attributes>
		<plan selected="yes">
			<activity type="h" link="1169" max_dur="09:48:56" >
			</activity>
			<leg mode="car">
			</leg>
			<activity type="w" link="677" start_time="09:53:10" end_time="18:28:01" >
			</activity>
			<leg mode="car">
			</leg>
			<activity type="h" link="1169" >
			</activity>
		</plan>

	</person>

<!-- ====================================================================== -->

	<person id="1010">
		<attributes>
			<attribute name="drivelogic" class="java.lang.String" >org.matsim.contrib.smartcity.agent.CLASSDriverLogicBasic</attribute>
		</attributes>
		<plan selected="yes">
			<activity type="h" link="4601" max_dur="09:21:56" >
			</activity>
			<leg mode="car">
			</leg>
			<activity type="w" link="4207" start_time="09:26:43" end_time="18:52:30" >
			</activity>
			<leg mode="car">
			</leg>
			<activity type="h" link="4601" >
			</activity>
		</plan>

	</person>

<!-- ====================================================================== -->

	<person id="1011">
		<attributes>
			<attribute name="drivelogic" class="java.lang.String" >org.matsim.contrib.smartcity.agent.CLASSDriverLogicBasic</attribute>
		</attributes>
		<plan selected="yes">
			<activity type="h" link="4714" max_dur="07:05:08" >
			</activity>
			<leg mode="car">
			</leg>
			<activity type="w" link="1629" start_time="07:13:17" end_time="16:57:02" >
			</activity>
			<leg mode="car">
			</leg>
			<activity type="h" link="4714" >
			</activity>
		</plan>

	</person>

<!-- ====================================================================== -->

	<person id="1012">
		<attributes>
			<attribute name="drivelogic" class="java.lang.String" >org.matsim.contrib.smartcity.agent.CLASSDriverLogicBasic</attribute>
		</attributes>
		<plan selected="yes">
			<activity type="h" link="5431" max_dur="08:52:38" >
			</activity>
			<leg mode="car">
			</leg>
			<activity type="w" link="5075" start_time="08:56:01" end_time="15:59:43" >
			</activity>
			<leg mode="car">
			</leg>
			<activity type="h" link="5431" >
			</activity>
		</plan>

	</person>

<!-- ====================================================================== -->

	<person id="1013">
		<attributes>
			<attribute name="drivelogic" class="java.lang.String" >org.matsim.contrib.smartcity.agent.CLASSDriverLogicBasic</attribute>
		</attributes>
		<plan selected="yes">
			<activity type="h" link="907" max_dur="09:28:40" >
			</activity>
			<leg mode="car">
			</leg>
			<activity type="w" link="4855" start_time="09:35:45" end_time="14:41:43" >
			</activity>
			<leg mode="car">
			</leg>
			<activity type="h" link="907" >
			</activity>
		</plan>

	</person>

<!-- ====================================================================== -->

	<person id="1014">
		<attributes>
			<attribute name="drivelogic" class="java.lang.String" >org.matsim.contrib.smartcity.agent.CLASSDriverLogicBasic</attribute>
		</attributes>
		<plan selected="yes">
			<activity type="h" link="4233" max_dur="08:10:49" >
			</activity>
			<leg mode="car">
			</leg>
			<activity type="w" link="1477" start_time="08:33:49" end_time="19:46:10" >
			</activity>
			<leg mode="car">
			</leg>
			<activity type="h" link="4233" >
			</activity>
		</plan>

	</person>

<!-- ====================================================================== -->

	<person id="1015">
		<attributes>
			<attribute name="drivelogic" class="java.lang.String" >org.matsim.contrib.smartcity.agent.CLASSDriverLogicBasic</attribute>
		</attributes>
		<plan selected="yes">
			<activity type="h" link="5877" max_dur="09:46:25" >
			</activity>
			<leg mode="car">
			</leg>
			<activity type="w" link="3944" start_time="09:51:13" end_time="18:31:53" >
			</activity>
			<leg mode="car">
			</leg>
			<activity type="h" link="5877" >
			</activity>
		</plan>

	</person>

<!-- ====================================================================== -->

	<person id="1016">
		<attributes>
			<attribute name="drivelogic" class="java.lang.String" >org.matsim.contrib.smartcity.agent.CLASSDriverLogicBasic</attribute>
		</attributes>
		<plan selected="yes">
			<activity type="h" link="2404" max_dur="08:35:08" >
			</activity>
			<leg mode="car">
			</leg>
			<activity type="w" link="4712" start_time="08:36:27" end_time="18:24:12" >
			</activity>
			<leg mode="car">
			</leg>
			<activity type="h" link="2404" >
			</activity>
		</plan>

	</person>

<!-- ====================================================================== -->

	<person id="1017">
		<attributes>
			<attribute name="drivelogic" class="java.lang.String" >org.matsim.contrib.smartcity.agent.CLASSDriverLogicBasic</attribute>
		</attributes>
		<plan selected="yes">
			<activity type="h" link="763" max_dur="08:08:23" >
			</activity>
			<leg mode="car">
			</leg>
			<activity type="w" link="5320" start_time="08:14:43" end_time="18:14:47" >
			</activity>
			<leg mode="car">
			</leg>
			<activity type="h" link="763" >
			</activity>
		</plan>

	</person>

<!-- ====================================================================== -->

	<person id="1018">
		<attributes>
			<attribute name="drivelogic" class="java.lang.String" >org.matsim.contrib.smartcity.agent.CLASSDriverLogicBasic</attribute>
		</attributes>
		<plan selected="yes">
			<activity type="h" link="840" max_dur="07:19:39" >
			</activity>
			<leg mode="car">
			</leg>
			<activity type="w" link="1389" start_time="07:40:05" end_time="18:09:30" >
			</activity>
			<leg mode="car">
			</leg>
			<activity type="h" link="840" >
			</activity>
		</plan>

	</person>

<!-- ====================================================================== -->

	<person id="1019">
		<attributes>
			<attribute name="drivelogic" class="java.lang.String" >org.matsim.contrib.smartcity.agent.CLASSDriverLogicBasic</attribute>
		</attributes>
		<plan selected="yes">
			<activity type="h" link="3204" max_dur="08:43:30" >
			</activity>
			<leg mode="car">
			</leg>
			<activity type="w" link="2163" start_time="08:47:54" end_time="18:31:17" >
			</activity>
			<leg mode="car">
			</leg>
			<activity type="h" link="3204" >
			</activity>
		</plan>

	</person>

<!-- ====================================================================== -->

	<person id="102">
		<attributes>
			<attribute name="drivelogic" class="java.lang.String" >org.matsim.contrib.smartcity.agent.CLASSDriverLogicBasic</attribute>
		</attributes>
		<plan selected="yes">
			<activity type="h" link="5413" max_dur="08:25:18" >
			</activity>
			<leg mode="car">
			</leg>
			<activity type="w" link="2339" start_time="08:28:11" end_time="17:29:17" >
			</activity>
			<leg mode="car">
			</leg>
			<activity type="h" link="5413" >
			</activity>
		</plan>

	</person>

<!-- ====================================================================== -->

	<person id="1020">
		<attributes>
			<attribute name="drivelogic" class="java.lang.String" >org.matsim.contrib.smartcity.agent.CLASSDriverLogicBasic</attribute>
		</attributes>
		<plan selected="yes">
			<activity type="h" link="2775" max_dur="09:52:30" >
			</activity>
			<leg mode="car">
			</leg>
			<activity type="w" link="877" start_time="09:57:34" end_time="17:10:45" >
			</activity>
			<leg mode="car">
			</leg>
			<activity type="h" link="2775" >
			</activity>
		</plan>

	</person>

<!-- ====================================================================== -->

	<person id="1021">
		<attributes>
			<attribute name="drivelogic" class="java.lang.String" >org.matsim.contrib.smartcity.agent.CLASSDriverLogicBasic</attribute>
		</attributes>
		<plan selected="yes">
			<activity type="h" link="3746" max_dur="06:42:51" >
			</activity>
			<leg mode="car">
			</leg>
			<activity type="w" link="199" start_time="06:45:22" end_time="17:33:03" >
			</activity>
			<leg mode="car">
			</leg>
			<activity type="h" link="3746" >
			</activity>
		</plan>

	</person>

<!-- ====================================================================== -->

	<person id="1022">
		<attributes>
			<attribute name="drivelogic" class="java.lang.String" >org.matsim.contrib.smartcity.agent.CLASSDriverLogicBasic</attribute>
		</attributes>
		<plan selected="yes">
			<activity type="h" link="1870" max_dur="08:15:27" >
			</activity>
			<leg mode="car">
			</leg>
			<activity type="w" link="262" start_time="08:18:47" end_time="18:06:46" >
			</activity>
			<leg mode="car">
			</leg>
			<activity type="h" link="1870" >
			</activity>
		</plan>

	</person>

<!-- ====================================================================== -->

	<person id="1023">
		<attributes>
			<attribute name="drivelogic" class="java.lang.String" >org.matsim.contrib.smartcity.agent.CLASSDriverLogicBasic</attribute>
		</attributes>
		<plan selected="yes">
			<activity type="h" link="2868" max_dur="07:59:50" >
			</activity>
			<leg mode="car">
			</leg>
			<activity type="w" link="2321" start_time="08:05:39" end_time="17:45:30" >
			</activity>
			<leg mode="car">
			</leg>
			<activity type="h" link="2868" >
			</activity>
		</plan>

	</person>

<!-- ====================================================================== -->

	<person id="1024">
		<attributes>
			<attribute name="drivelogic" class="java.lang.String" >org.matsim.contrib.smartcity.agent.CLASSDriverLogicBasic</attribute>
		</attributes>
		<plan selected="yes">
			<activity type="h" link="1374" max_dur="06:32:12" >
			</activity>
			<leg mode="car">
			</leg>
			<activity type="w" link="5845" start_time="06:51:46" end_time="18:50:57" >
			</activity>
			<leg mode="car">
			</leg>
			<activity type="h" link="1374" >
			</activity>
		</plan>

	</person>

<!-- ====================================================================== -->

	<person id="1025">
		<attributes>
			<attribute name="drivelogic" class="java.lang.String" >org.matsim.contrib.smartcity.agent.CLASSDriverLogicBasic</attribute>
		</attributes>
		<plan selected="yes">
			<activity type="h" link="1992" max_dur="08:26:24" >
			</activity>
			<leg mode="car">
			</leg>
			<activity type="w" link="5765" start_time="08:36:48" end_time="16:59:23" >
			</activity>
			<leg mode="car">
			</leg>
			<activity type="h" link="1992" >
			</activity>
		</plan>

	</person>

<!-- ====================================================================== -->

	<person id="1026">
		<attributes>
			<attribute name="drivelogic" class="java.lang.String" >org.matsim.contrib.smartcity.agent.CLASSDriverLogicBasic</attribute>
		</attributes>
		<plan selected="yes">
			<activity type="h" link="2458" max_dur="09:07:05" >
			</activity>
			<leg mode="car">
			</leg>
			<activity type="w" link="2741" start_time="09:14:00" end_time="16:27:29" >
			</activity>
			<leg mode="car">
			</leg>
			<activity type="h" link="2458" >
			</activity>
		</plan>

	</person>

<!-- ====================================================================== -->

	<person id="1027">
		<attributes>
			<attribute name="drivelogic" class="java.lang.String" >org.matsim.contrib.smartcity.agent.CLASSDriverLogicBasic</attribute>
		</attributes>
		<plan selected="yes">
			<activity type="h" link="4273" max_dur="07:39:35" >
			</activity>
			<leg mode="car">
			</leg>
			<activity type="w" link="471" start_time="07:41:51" end_time="17:18:01" >
			</activity>
			<leg mode="car">
			</leg>
			<activity type="h" link="4273" >
			</activity>
		</plan>

	</person>

<!-- ====================================================================== -->

	<person id="1028">
		<attributes>
			<attribute name="drivelogic" class="java.lang.String" >org.matsim.contrib.smartcity.agent.CLASSDriverLogicBasic</attribute>
		</attributes>
		<plan selected="yes">
			<activity type="h" link="5896" max_dur="09:49:37" >
			</activity>
			<leg mode="car">
			</leg>
			<activity type="w" link="1885" start_time="09:51:36" end_time="18:34:31" >
			</activity>
			<leg mode="car">
			</leg>
			<activity type="h" link="5896" >
			</activity>
		</plan>

	</person>

<!-- ====================================================================== -->

	<person id="1029">
		<attributes>
			<attribute name="drivelogic" class="java.lang.String" >org.matsim.contrib.smartcity.agent.CLASSDriverLogicBasic</attribute>
		</attributes>
		<plan selected="yes">
			<activity type="h" link="4834" max_dur="07:42:06" >
			</activity>
			<leg mode="car">
			</leg>
			<activity type="w" link="302" start_time="07:50:43" end_time="19:10:34" >
			</activity>
			<leg mode="car">
			</leg>
			<activity type="h" link="4834" >
			</activity>
		</plan>

	</person>

<!-- ====================================================================== -->

	<person id="103">
		<attributes>
			<attribute name="drivelogic" class="java.lang.String" >org.matsim.contrib.smartcity.agent.CLASSDriverLogicBasic</attribute>
		</attributes>
		<plan selected="yes">
			<activity type="h" link="1995" max_dur="06:48:31" >
			</activity>
			<leg mode="car">
			</leg>
			<activity type="w" link="2641" start_time="06:52:32" end_time="17:25:38" >
			</activity>
			<leg mode="car">
			</leg>
			<activity type="h" link="1995" >
			</activity>
		</plan>

	</person>

<!-- ====================================================================== -->

	<person id="1030">
		<attributes>
			<attribute name="drivelogic" class="java.lang.String" >org.matsim.contrib.smartcity.agent.CLASSDriverLogicBasic</attribute>
		</attributes>
		<plan selected="yes">
			<activity type="h" link="143" max_dur="09:03:10" >
			</activity>
			<leg mode="car">
			</leg>
			<activity type="w" link="823" start_time="09:07:54" end_time="16:54:16" >
			</activity>
			<leg mode="car">
			</leg>
			<activity type="h" link="143" >
			</activity>
		</plan>

	</person>

<!-- ====================================================================== -->

	<person id="1031">
		<attributes>
			<attribute name="drivelogic" class="java.lang.String" >org.matsim.contrib.smartcity.agent.CLASSDriverLogicBasic</attribute>
		</attributes>
		<plan selected="yes">
			<activity type="h" link="458" max_dur="09:24:12" >
			</activity>
			<leg mode="car">
			</leg>
			<activity type="w" link="2385" start_time="09:24:43" end_time="19:13:42" >
			</activity>
			<leg mode="car">
			</leg>
			<activity type="h" link="458" >
			</activity>
		</plan>

	</person>

<!-- ====================================================================== -->

	<person id="1032">
		<attributes>
			<attribute name="drivelogic" class="java.lang.String" >org.matsim.contrib.smartcity.agent.CLASSDriverLogicBasic</attribute>
		</attributes>
		<plan selected="yes">
			<activity type="h" link="4429" max_dur="10:13:51" >
			</activity>
			<leg mode="car">
			</leg>
			<activity type="w" link="36" start_time="10:20:03" end_time="19:06:40" >
			</activity>
			<leg mode="car">
			</leg>
			<activity type="h" link="4429" >
			</activity>
		</plan>

	</person>

<!-- ====================================================================== -->

	<person id="1033">
		<attributes>
			<attribute name="drivelogic" class="java.lang.String" >org.matsim.contrib.smartcity.agent.CLASSDriverLogicBasic</attribute>
		</attributes>
		<plan selected="yes">
			<activity type="h" link="796" max_dur="07:53:50" >
			</activity>
			<leg mode="car">
			</leg>
			<activity type="w" link="3978" start_time="07:57:20" end_time="19:32:51" >
			</activity>
			<leg mode="car">
			</leg>
			<activity type="h" link="796" >
			</activity>
		</plan>

	</person>

<!-- ====================================================================== -->

	<person id="1034">
		<attributes>
			<attribute name="drivelogic" class="java.lang.String" >org.matsim.contrib.smartcity.agent.CLASSDriverLogicBasic</attribute>
		</attributes>
		<plan selected="yes">
			<activity type="h" link="3142" max_dur="10:17:20" >
			</activity>
			<leg mode="car">
			</leg>
			<activity type="w" link="5358" start_time="10:19:54" end_time="16:30:17" >
			</activity>
			<leg mode="car">
			</leg>
			<activity type="h" link="3142" >
			</activity>
		</plan>

	</person>

<!-- ====================================================================== -->

	<person id="1035">
		<attributes>
			<attribute name="drivelogic" class="java.lang.String" >org.matsim.contrib.smartcity.agent.CLASSDriverLogicBasic</attribute>
		</attributes>
		<plan selected="yes">
			<activity type="h" link="1588" max_dur="08:29:55" >
			</activity>
			<leg mode="car">
			</leg>
			<activity type="w" link="1951" start_time="08:45:33" end_time="18:09:46" >
			</activity>
			<leg mode="car">
			</leg>
			<activity type="h" link="1588" >
			</activity>
		</plan>

	</person>

<!-- ====================================================================== -->

	<person id="1036">
		<attributes>
			<attribute name="drivelogic" class="java.lang.String" >org.matsim.contrib.smartcity.agent.CLASSDriverLogicBasic</attribute>
		</attributes>
		<plan selected="yes">
			<activity type="h" link="4510" max_dur="08:36:40" >
			</activity>
			<leg mode="car">
			</leg>
			<activity type="w" link="5927" start_time="08:39:28" end_time="16:35:53" >
			</activity>
			<leg mode="car">
			</leg>
			<activity type="h" link="4510" >
			</activity>
		</plan>

	</person>

<!-- ====================================================================== -->

	<person id="1037">
		<attributes>
			<attribute name="drivelogic" class="java.lang.String" >org.matsim.contrib.smartcity.agent.CLASSDriverLogicBasic</attribute>
		</attributes>
		<plan selected="yes">
			<activity type="h" link="467" max_dur="06:31:54" >
			</activity>
			<leg mode="car">
			</leg>
			<activity type="w" link="3023" start_time="06:39:16" end_time="19:33:27" >
			</activity>
			<leg mode="car">
			</leg>
			<activity type="h" link="467" >
			</activity>
		</plan>

	</person>

<!-- ====================================================================== -->

	<person id="1038">
		<attributes>
			<attribute name="drivelogic" class="java.lang.String" >org.matsim.contrib.smartcity.agent.CLASSDriverLogicBasic</attribute>
		</attributes>
		<plan selected="yes">
			<activity type="h" link="33" max_dur="08:02:20" >
			</activity>
			<leg mode="car">
			</leg>
			<activity type="w" link="2873" start_time="08:06:01" end_time="19:32:24" >
			</activity>
			<leg mode="car">
			</leg>
			<activity type="h" link="33" >
			</activity>
		</plan>

	</person>

<!-- ====================================================================== -->

	<person id="1039">
		<attributes>
			<attribute name="drivelogic" class="java.lang.String" >org.matsim.contrib.smartcity.agent.CLASSDriverLogicBasic</attribute>
		</attributes>
		<plan selected="yes">
			<activity type="h" link="6" max_dur="10:04:13" >
			</activity>
			<leg mode="car">
			</leg>
			<activity type="w" link="5366" start_time="10:05:16" end_time="20:02:45" >
			</activity>
			<leg mode="car">
			</leg>
			<activity type="h" link="6" >
			</activity>
		</plan>

	</person>

<!-- ====================================================================== -->

	<person id="104">
		<attributes>
			<attribute name="drivelogic" class="java.lang.String" >org.matsim.contrib.smartcity.agent.CLASSDriverLogicBasic</attribute>
		</attributes>
		<plan selected="yes">
			<activity type="h" link="2482" max_dur="08:05:56" >
			</activity>
			<leg mode="car">
			</leg>
			<activity type="w" link="4533" start_time="08:08:54" end_time="18:11:24" >
			</activity>
			<leg mode="car">
			</leg>
			<activity type="h" link="2482" >
			</activity>
		</plan>

	</person>

<!-- ====================================================================== -->

	<person id="1040">
		<attributes>
			<attribute name="drivelogic" class="java.lang.String" >org.matsim.contrib.smartcity.agent.CLASSDriverLogicBasic</attribute>
		</attributes>
		<plan selected="yes">
			<activity type="h" link="933" max_dur="09:43:09" >
			</activity>
			<leg mode="car">
			</leg>
			<activity type="w" link="4840" start_time="09:51:39" end_time="19:34:01" >
			</activity>
			<leg mode="car">
			</leg>
			<activity type="h" link="933" >
			</activity>
		</plan>

	</person>

<!-- ====================================================================== -->

	<person id="1041">
		<attributes>
			<attribute name="drivelogic" class="java.lang.String" >org.matsim.contrib.smartcity.agent.CLASSDriverLogicBasic</attribute>
		</attributes>
		<plan selected="yes">
			<activity type="h" link="257" max_dur="08:12:15" >
			</activity>
			<leg mode="car">
			</leg>
			<activity type="w" link="4146" start_time="08:12:42" end_time="18:39:48" >
			</activity>
			<leg mode="car">
			</leg>
			<activity type="h" link="257" >
			</activity>
		</plan>

	</person>

<!-- ====================================================================== -->

	<person id="1042">
		<attributes>
			<attribute name="drivelogic" class="java.lang.String" >org.matsim.contrib.smartcity.agent.CLASSDriverLogicBasic</attribute>
		</attributes>
		<plan selected="yes">
			<activity type="h" link="5394" max_dur="09:38:56" >
			</activity>
			<leg mode="car">
			</leg>
			<activity type="w" link="3482" start_time="09:45:50" end_time="16:54:33" >
			</activity>
			<leg mode="car">
			</leg>
			<activity type="h" link="5394" >
			</activity>
		</plan>

	</person>

<!-- ====================================================================== -->

	<person id="1043">
		<attributes>
			<attribute name="drivelogic" class="java.lang.String" >org.matsim.contrib.smartcity.agent.CLASSDriverLogicBasic</attribute>
		</attributes>
		<plan selected="yes">
			<activity type="h" link="1803" max_dur="10:30:45" >