<?xml version="1.0" encoding="UTF-8"?>
<!DOCTYPE network SYSTEM "http://www.matsim.org/files/dtd/network_v2.dtd">
<network>

<!-- ====================================================================== -->

	<nodes>
		<node id="1076629757" x="653073.9501188544" y="4946781.283076504" >
		</node>
		<node id="1076629758" x="653075.4804044681" y="4946788.01019564" >
		</node>
		<node id="1076629761" x="653074.6041977264" y="4946794.858124647" >
		</node>
		<node id="1076629764" x="653057.4331699334" y="4946808.777731234" >
		</node>
		<node id="1076629766" x="653050.520982822" y="4946808.224968869" >
		</node>
		<node id="1076629767" x="653044.2111084724" y="4946805.352462102" >
		</node>
		<node id="1076629769" x="653036.7300509673" y="4946795.661330228" >
		</node>
		<node id="1076629770" x="653035.5667985491" y="4946788.842886963" >
		</node>
		<node id="1076629771" x="653036.8150689824" y="4946782.025997055" >
		</node>
		<node id="1076629776" x="653052.24359479" y="4946769.332093379" >
		</node>
		<node id="1076629777" x="653059.183259902" y="4946769.396473686" >
		</node>
		<node id="1076629780" x="653065.678115264" y="4946771.828800867" >
		</node>
		<node id="1076629789" x="653377.8277465325" y="4946481.699385386" >
		</node>
		<node id="1076629791" x="653380.1646864048" y="4946468.473149137" >
		</node>
		<node id="1076629793" x="653385.2158435544" y="4946464.22510086" >
		</node>
		<node id="1076629794" x="653395.7237077282" y="4946463.040808018" >
		</node>
		<node id="1076629795" x="653404.3692163124" y="4946469.1255932525" >
		</node>
		<node id="1076629797" x="653406.8906934977" y="4946477.532380593" >
		</node>
		<node id="1076629799" x="653400.7711208144" y="4946489.357299164" >
		</node>
		<node id="1076629800" x="653388.9231539959" y="4946491.85460969" >
		</node>
		<node id="1131729791" x="654724.0078762899" y="4947670.074367071" >
		</node>
		<node id="122006274" x="654803.4244906832" y="4946871.930721295" >
		</node>
		<node id="122006276" x="654673.8872298155" y="4946943.59535894" >
		</node>
		<node id="122006279" x="654258.3595981927" y="4947058.075325138" >
		</node>
		<node id="122006281" x="654214.2375643657" y="4947075.738653791" >
		</node>
		<node id="122006284" x="654107.843981237" y="4947138.697223195" >
		</node>
		<node id="1419841705" x="653101.666643019" y="4946749.5080755465" >
		</node>
		<node id="1433699948" x="654771.881481757" y="4946614.062647724" >
		</node>
		<node id="1433699957" x="654768.6974883545" y="4946614.842191964" >
		</node>
		<node id="1433699960" x="654756.7998718421" y="4946621.048073484" >
		</node>
		<node id="1433699964" x="654747.0130863356" y="4946625.904104413" >
		</node>
		<node id="1433699966" x="654741.4878882179" y="4946627.716808643" >
		</node>
		<node id="1433699968" x="654738.7521158505" y="4946635.286959633" >
		</node>
		<node id="1433699969" x="654762.8829400716" y="4946643.967441814" >
		</node>
		<node id="1433699970" x="654742.9913408671" y="4946646.425212229" >
		</node>
		<node id="1433699976" x="654745.9811885227" y="4946671.304434926" >
		</node>
		<node id="1433716824" x="654264.7344648666" y="4946417.333146901" >
		</node>
		<node id="1433716825" x="654323.5322260495" y="4946443.411403783" >
		</node>
		<node id="1433716826" x="654293.2006143532" y="4946512.619310758" >
		</node>
		<node id="1433716827" x="654294.0732059107" y="4946537.536586208" >
		</node>
		<node id="1433716828" x="654242.0732560763" y="4946537.450880881" >
		</node>
		<node id="1433716829" x="654249.1133895435" y="4946553.590459035" >
		</node>
		<node id="1433716831" x="654196.9045741588" y="4946552.9555147765" >
		</node>
		<node id="1433716832" x="654543.2233662736" y="4946571.022016328" >
		</node>
		<node id="1433716833" x="654550.120251871" y="4946570.898016315" >
		</node>
		<node id="1433716834" x="654557.2582958277" y="4946577.937533013" >
		</node>
		<node id="1433716837" x="654561.2986201033" y="4946580.823928271" >
		</node>
		<node id="1433716840" x="654565.9188362667" y="4946583.3463061545" >
		</node>
		<node id="1433716844" x="654700.3701689463" y="4946600.235118822" >
		</node>
		<node id="1433716845" x="654590.1708256449" y="4946601.898703668" >
		</node>
		<node id="1433716846" x="654603.3658250258" y="4946610.094626446" >
		</node>
		<node id="1433716849" x="653905.2094980766" y="4946686.553773489" >
		</node>
		<node id="1433716850" x="654476.9283222842" y="4946954.776318347" >
		</node>
		<node id="1433716851" x="654471.6295010819" y="4946971.35471165" >
		</node>
		<node id="1433716852" x="654460.7863242263" y="4946983.26582107" >
		</node>
		<node id="1447327555" x="654372.5599406504" y="4947878.341981488" >
		</node>
		<node id="1476164942" x="653871.2757358496" y="4947184.973415314" >
		</node>
		<node id="1476164945" x="653871.5856646552" y="4947186.614623466" >
		</node>
		<node id="1476164946" x="653871.276375961" y="4947189.941593673" >
		</node>
		<node id="1476164947" x="653858.262006775" y="4947190.165090108" >
		</node>
		<node id="1476164948" x="653870.6730248623" y="4947191.29429993" >
		</node>
		<node id="1476164949" x="653859.9402902694" y="4947191.6388298245" >
		</node>
		<node id="1476164953" x="653861.7760812833" y="4947192.827345806" >
		</node>
		<node id="1476164955" x="653866.3490938519" y="4947193.992146471" >
		</node>
		<node id="1476164957" x="654082.7456912193" y="4947202.217917411" >
		</node>
		<node id="1476164959" x="654058.2824670282" y="4947206.535914522" >
		</node>
		<node id="1476164961" x="654106.6138437294" y="4947209.544902625" >
		</node>
		<node id="1476164963" x="654127.4565447927" y="4947226.313784618" >
		</node>
		<node id="1476164965" x="653931.0037755219" y="4947300.586462125" >
		</node>
		<node id="1476164966" x="653911.6069214593" y="4947317.007122048" >
		</node>
		<node id="1476164968" x="653900.3146381909" y="4947318.8720383085" >
		</node>
		<node id="1476164970" x="653930.737126898" y="4947320.097110309" >
		</node>
		<node id="1476164972" x="653927.7390002683" y="4947323.4155753665" >
		</node>
		<node id="1476164987" x="653788.1520487193" y="4947411.884962553" >
		</node>
		<node id="1476164995" x="653786.8550744746" y="4947426.047243297" >
		</node>
		<node id="1476165000" x="653524.4565820012" y="4947479.38952934" >
		</node>
		<node id="1476165001" x="653529.815093948" y="4947482.873458548" >
		</node>
		<node id="1476165002" x="653727.5261764663" y="4947504.5811900385" >
		</node>
		<node id="1476165003" x="653528.2394754689" y="4947502.108439235" >
		</node>
		<node id="1476165004" x="653750.4883188781" y="4947521.943917878" >
		</node>
		<node id="1476165006" x="653537.9286547779" y="4947516.609695154" >
		</node>
		<node id="1476165008" x="653733.3243668546" y="4947521.246386768" >
		</node>
		<node id="1476165015" x="653554.2312577792" y="4947523.510314369" >
		</node>
		<node id="1476165017" x="653754.2562150753" y="4947538.927584583" >
		</node>
		<node id="1476165018" x="653730.9670555356" y="4947538.306538127" >
		</node>
		<node id="1476165019" x="653750.1204814457" y="4947555.389673457" >
		</node>
		<node id="1476165020" x="653504.6765969534" y="4947556.387019002" >
		</node>
		<node id="1476165022" x="653705.2224642062" y="4947571.537336082" >
		</node>
		<node id="1476165023" x="653709.4376148585" y="4947581.396138584" >
		</node>
		<node id="1476165031" x="653479.1455625592" y="4947614.397808869" >
		</node>
		<node id="1476165033" x="653624.9862363248" y="4947626.456554665" >
		</node>
		<node id="1476165035" x="653632.1879393111" y="4947635.808390753" >
		</node>
		<node id="1476165036" x="653472.8800896883" y="4947635.066260581" >
		</node>
		<node id="1476165042" x="653525.3912300584" y="4947696.343348994" >
		</node>
		<node id="1476165044" x="653515.9343264659" y="4947696.107442417" >
		</node>
		<node id="1476167527" x="653524.1832852095" y="4947705.78413828" >
		</node>
		<node id="1476167533" x="653534.5944987703" y="4947715.923482102" >
		</node>
		<node id="1476173560" x="652992.0335982097" y="4947897.583593929" >
		</node>
		<node id="1476173566" x="653010.4173406358" y="4947915.71325604" >
		</node>
		<node id="1631231228" x="653632.0080294674" y="4947674.382361136" >
		</node>
		<node id="1631231229" x="653621.0066774973" y="4947708.064203138" >
		</node>
		<node id="1631231232" x="653609.5470240178" y="4947685.985091054" >
		</node>
		<node id="1631231234" x="653623.2246269702" y="4947667.504765569" >
		</node>
		<node id="1631231236" x="653610.7415999577" y="4947671.775896209" >
		</node>
		<node id="1631231239" x="653644.8975499009" y="4947777.386504543" >
		</node>
		<node id="1631231240" x="653633.7155629732" y="4947684.292609456" >
		</node>
		<node id="1631231241" x="653660.5578657422" y="4947771.912880154" >
		</node>
		<node id="1631231244" x="653684.6313877158" y="4947844.196158906" >
		</node>
		<node id="1631231257" x="653636.7432357075" y="4947700.058233659" >
		</node>
		<node id="1631231259" x="653670.1571068967" y="4947849.16444537" >
		</node>
		<node id="1631231262" x="653615.8004927435" y="4947668.172878688" >
		</node>
		<node id="1642859385" x="653646.9725882364" y="4947783.848908803" >
		</node>
		<node id="1642859403" x="653635.104933836" y="4947748.922841095" >
		</node>
		<node id="1642859406" x="653616.0526760588" y="4947698.588005129" >
		</node>
		<node id="1642859417" x="653629.5728427789" y="4947789.09224131" >
		</node>
		<node id="1642859420" x="653600.6514538161" y="4947704.834802009" >
		</node>
		<node id="1642859438" x="653617.6303292373" y="4947754.642349988" >
		</node>
		<node id="1762465055" x="652981.0876655043" y="4947917.3635583" >
		</node>
		<node id="1762465056" x="652980.6556655198" y="4947930.912892849" >
		</node>
		<node id="1762465057" x="652977.8163887903" y="4947942.960331666" >
		</node>
		<node id="1762465058" x="652973.4784783588" y="4947952.982794994" >
		</node>
		<node id="1786899256" x="653043.3386358314" y="4946773.200112548" >
		</node>
		<node id="1786899257" x="653068.4020144907" y="4946804.180626616" >
		</node>
		<node id="1786899260" x="653368.7987733597" y="4947148.03845792" >
		</node>
		<node id="1942501471" x="654415.7734061609" y="4946476.246780218" >
		</node>
		<node id="1942501475" x="654508.1709741452" y="4946515.444751509" >
		</node>
		<node id="1942501482" x="654700.183376618" y="4946605.054346144" >
		</node>
		<node id="2012904697" x="652868.3258330855" y="4946540.856371943" >
		</node>
		<node id="2012904699" x="652924.0655447015" y="4946554.8458286235" >
		</node>
		<node id="2012904703" x="652900.2234186466" y="4946553.981457192" >
		</node>
		<node id="2012904708" x="652961.4726526627" y="4946560.088172503" >
		</node>
		<node id="2023217239" x="653262.1396432784" y="4946370.277559057" >
		</node>
		<node id="2023217240" x="653450.5483590163" y="4946375.594110685" >
		</node>
		<node id="2023217246" x="653477.3936122528" y="4946432.41507492" >
		</node>
		<node id="2023217247" x="653611.492889998" y="4946469.634231294" >
		</node>
		<node id="2032810861" x="653553.7457823219" y="4947318.715266742" >
		</node>
		<node id="2032810870" x="653837.1616306733" y="4947586.170901675" >
		</node>
		<node id="2032810907" x="653916.6632642255" y="4947765.540878928" >
		</node>
		<node id="2035506535" x="654789.6971476319" y="4946893.930883125" >
		</node>
		<node id="2035506536" x="654714.0911863921" y="4946926.663704134" >
		</node>
		<node id="2035506537" x="654717.5963618137" y="4946935.9838202465" >
		</node>
		<node id="2035506538" x="654655.1206802039" y="4946950.45941232" >
		</node>
		<node id="2035506539" x="654657.4286726515" y="4946960.417703208" >
		</node>
		<node id="2035506540" x="654614.0900850642" y="4946962.170041418" >
		</node>
		<node id="2035506541" x="654617.3382701527" y="4946971.295000197" >
		</node>
		<node id="2035506542" x="654731.7664653163" y="4947027.629037575" >
		</node>
		<node id="2035506543" x="654694.0491138098" y="4947042.44165667" >
		</node>
		<node id="2035506544" x="654675.8248417438" y="4947047.54030062" >
		</node>
		<node id="2035506545" x="654647.5208714964" y="4947052.5310556395" >
		</node>
		<node id="2035506546" x="654585.3201328497" y="4947064.190757872" >
		</node>
		<node id="2035506547" x="654539.3431377851" y="4947073.138201719" >
		</node>
		<node id="2035506548" x="654513.0870998111" y="4947079.078803266" >
		</node>
		<node id="2035506550" x="654484.2232530424" y="4947085.601785025" >
		</node>
		<node id="2035506551" x="654441.6972801739" y="4947090.897966947" >
		</node>
		<node id="2035506552" x="654183.0214331836" y="4947090.764961675" >
		</node>
		<node id="2035506553" x="654388.0940098616" y="4947099.6641410515" >
		</node>
		<node id="2035506554" x="654188.594623226" y="4947099.878488286" >
		</node>
		<node id="2035506555" x="654330.9033554192" y="4947107.189137122" >
		</node>
		<node id="2035506556" x="654288.9057992178" y="4947108.642206488" >
		</node>
		<node id="2035506557" x="654136.999077711" y="4947118.27532698" >
		</node>
		<node id="2035506558" x="654141.8463802278" y="4947127.227002963" >
		</node>
		<node id="2035506563" x="653998.910979199" y="4947245.7102399375" >
		</node>
		<node id="2035506564" x="653978.6171566551" y="4947251.161577015" >
		</node>
		<node id="2035506585" x="654064.5298714128" y="4947335.379439332" >
		</node>
		<node id="2035506591" x="654262.4935928269" y="4947484.837196317" >
		</node>
		<node id="2035506593" x="654173.0290464156" y="4947493.782245552" >
		</node>
		<node id="2035506598" x="654260.0888338392" y="4947536.039824662" >
		</node>
		<node id="2035506599" x="654182.0811339499" y="4947542.557533059" >
		</node>
		<node id="2035506603" x="652974.6602563194" y="4947533.397886539" >
		</node>
		<node id="2035506605" x="654160.6027448956" y="4947573.076506107" >
		</node>
		<node id="2035506606" x="652953.1506111824" y="4947550.415871666" >
		</node>
		<node id="2035506607" x="652974.7788913272" y="4947556.185199959" >
		</node>
		<node id="2035506612" x="652816.9779497796" y="4947618.435744866" >
		</node>
		<node id="2035506616" x="653459.8580918836" y="4947650.005844151" >
		</node>
		<node id="2035506624" x="653608.3275193282" y="4947678.564979519" >
		</node>
		<node id="2035506632" x="653923.4735402751" y="4947699.438691836" >
		</node>
		<node id="2035506651" x="652661.3338227792" y="4947695.278576315" >
		</node>
		<node id="2035506653" x="652648.6027219673" y="4947701.690740314" >
		</node>
		<node id="2035506656" x="652631.7048889485" y="4947709.893898322" >
		</node>
		<node id="2035506697" x="654316.7519840294" y="4947846.5433551315" >
		</node>
		<node id="2035506712" x="653600.9206514662" y="4947872.936120417" >
		</node>
		<node id="2035506723" x="652773.24379896" y="4947921.823977912" >
		</node>
		<node id="2035506727" x="652987.6343311183" y="4947964.43252674" >
		</node>
		<node id="2036365642" x="653018.4827570609" y="4946547.5562924035" >
		</node>
		<node id="2036366404" x="654159.4482493527" y="4948122.84970449" >
		</node>
		<node id="2036822385" x="653247.8600565861" y="4946380.297472024" >
		</node>
		<node id="2036822386" x="653252.835584515" y="4946386.595086287" >
		</node>
		<node id="2036822387" x="653276.5992098243" y="4946419.890670413" >
		</node>
		<node id="2036822398" x="653428.1858099033" y="4946558.272956022" >
		</node>
		<node id="2036822403" x="653298.4816058725" y="4946590.637945669" >
		</node>
		<node id="2036822414" x="653210.1769341778" y="4946666.6663681585" >
		</node>
		<node id="2036822441" x="653143.8169590372" y="4946722.598869276" >
		</node>
		<node id="2036822466" x="653088.5208397676" y="4946762.611619933" >
		</node>
		<node id="2036822467" x="653080.6684239877" y="4946760.558334475" >
		</node>
		<node id="2036822471" x="653025.6139601271" y="4946754.230347767" >
		</node>
		<node id="2036822473" x="653070.3975858977" y="4946766.494571888" >
		</node>
		<node id="2036822475" x="653084.5509304154" y="4946766.107495454" >
		</node>
		<node id="2036822478" x="653063.1621020252" y="4946770.880039049" >
		</node>
		<node id="2036822479" x="653046.9318104568" y="4946771.206844193" >
		</node>
		<node id="2036822480" x="653078.032171107" y="4946773.388555667" >
		</node>
		<node id="2036822490" x="653036.1308409983" y="4946792.157219762" >
		</node>
		<node id="2036822491" x="653072.6224443519" y="4946798.14548408" >
		</node>
		<node id="2036822494" x="653070.7564266132" y="4946801.235527327" >
		</node>
		<node id="2036822495" x="653032.3989900481" y="4946802.349622556" >
		</node>
		<node id="2036822496" x="653073.6854830204" y="4946804.839303323" >
		</node>
		<node id="2036822497" x="653046.4633714553" y="4946806.383883894" >
		</node>
		<node id="2036822498" x="653059.5732160651" y="4946808.183798976" >
		</node>
		<node id="2036822499" x="653038.1678231824" y="4946809.643939466" >
		</node>
		<node id="2036822502" x="653074.7966473317" y="4946811.845466046" >
		</node>
		<node id="2036822505" x="653024.257638057" y="4946811.826287815" >
		</node>
		<node id="2036822510" x="653067.758330477" y="4946815.946623911" >
		</node>
		<node id="2036822512" x="653028.867807507" y="4946815.7921800455" >
		</node>
		<node id="2036822513" x="653014.2222603625" y="4946823.903324247" >
		</node>
		<node id="2036822540" x="652961.5055021475" y="4946863.6002931595" >
		</node>
		<node id="2036822623" x="653763.780847374" y="4947277.764590468" >
		</node>
		<node id="2036822624" x="653793.4819360212" y="4947287.307674456" >
		</node>
		<node id="2036822625" x="653840.1095363996" y="4947311.869522363" >
		</node>
		<node id="2036822626" x="653817.4935745549" y="4947315.254326951" >
		</node>
		<node id="2037848823" x="654161.3847972231" y="4947643.661076265" >
		</node>
		<node id="2037848826" x="654131.5853873931" y="4947710.781597041" >
		</node>
		<node id="2041913883" x="654176.6484057533" y="4946459.655161985" >
		</node>
		<node id="2041913885" x="654220.095770329" y="4946479.064292959" >
		</node>
		<node id="2041913887" x="654468.344269435" y="4946515.1926660715" >
		</node>
		<node id="2041913892" x="654458.3303669168" y="4946519.265685471" >
		</node>
		<node id="2041913897" x="653858.7481851483" y="4946517.907968483" >
		</node>
		<node id="2041913898" x="654329.2455926592" y="4946529.373908229" >
		</node>
		<node id="2041913899" x="654487.9666772884" y="4946540.591644759" >
		</node>
		<node id="2041913900" x="654510.7267816595" y="4946538.279480124" >
		</node>
		<node id="2041913902" x="653863.7818913655" y="4946527.397318875" >
		</node>
		<node id="2041913904" x="654499.2860795737" y="4946545.9527554205" >
		</node>
		<node id="2041913910" x="653829.1007220397" y="4946535.618652374" >
		</node>
		<node id="2041913913" x="654469.4510993275" y="4946551.852505623" >
		</node>
		<node id="2041913914" x="653869.3930274481" y="4946537.956298164" >
		</node>
		<node id="2041913915" x="654507.9934652487" y="4946553.718840351" >
		</node>
		<node id="2041913916" x="654483.4193608435" y="4946553.598020995" >
		</node>
		<node id="2041913917" x="654525.0170841196" y="4946556.082124563" >
		</node>
		<node id="2041913922" x="654470.6442523319" y="4946557.36047871" >
		</node>
		<node id="2041913923" x="654492.9629671307" y="4946556.916051818" >
		</node>
		<node id="2041913924" x="654565.2658598138" y="4946560.568179913" >
		</node>
		<node id="2041913925" x="654391.9175721086" y="4946558.268446934" >
		</node>
		<node id="2041913929" x="654469.5574473968" y="4946562.3360180035" >
		</node>
		<node id="2041913934" x="654495.5085179314" y="4946568.569343514" >
		</node>
		<node id="2041913940" x="654530.8841573228" y="4946576.128522162" >
		</node>
		<node id="2041913946" x="654515.7753082758" y="4946580.613086828" >
		</node>
		<node id="2041913950" x="654500.1949748807" y="4946585.242013958" >
		</node>
		<node id="2041913951" x="654452.5203290355" y="4946585.758185384" >
		</node>
		<node id="2041913958" x="654496.2303081863" y="4946610.043684244" >
		</node>
		<node id="2041913960" x="654461.9133293927" y="4946613.624493991" >
		</node>
		<node id="2041913963" x="654469.6762232478" y="4946618.089173186" >
		</node>
		<node id="2041913966" x="654457.9165236102" y="4946620.531073342" >
		</node>
		<node id="2041913967" x="654453.7956789356" y="4946623.666875321" >
		</node>
		<node id="2041913968" x="654634.1193396391" y="4946628.458232716" >
		</node>
		<node id="2041913974" x="654394.8688494774" y="4946641.586507982" >
		</node>
		<node id="2041913975" x="654393.3959297374" y="4946642.1403770065" >
		</node>
		<node id="2041913980" x="654369.6482888134" y="4946650.2755606435" >
		</node>
		<node id="2041914027" x="654253.7488981152" y="4946706.658598548" >
		</node>
		<node id="2041914028" x="654401.5336489307" y="4946710.25551702" >
		</node>
		<node id="2041914035" x="654380.5840570433" y="4946717.168240511" >
		</node>
		<node id="2041914043" x="654406.0920203652" y="4946724.6576988" >
		</node>
		<node id="2041914051" x="654384.6966884652" y="4946730.970685884" >
		</node>
		<node id="2041914057" x="654410.473627451" y="4946738.48882111" >
		</node>
		<node id="2041914060" x="654112.9898806185" y="4946735.775821508" >
		</node>
		<node id="2041914062" x="654389.6616219667" y="4946744.626785509" >
		</node>
		<node id="2041914064" x="654418.2099367066" y="4946748.043248592" >
		</node>
		<node id="2041914066" x="654413.926061671" y="4946749.374626847" >
		</node>
		<node id="2041914072" x="654368.8379640745" y="4946784.785996024" >
		</node>
		<node id="2041914086" x="654436.8152628683" y="4946806.672374447" >
		</node>
		<node id="2041914090" x="654288.3127587365" y="4946844.180999826" >
		</node>
		<node id="2041914094" x="654454.704938594" y="4946862.039031723" >
		</node>
		<node id="2041914098" x="654628.4817066549" y="4946869.96392805" >
		</node>
		<node id="2041914104" x="654454.6485466473" y="4946878.664976872" >
		</node>
		<node id="2041914106" x="654582.5475014022" y="4946884.024830973" >
		</node>
		<node id="2041914121" x="654513.6389308411" y="4946905.105491157" >
		</node>
		<node id="2041914129" x="654473.5948229916" y="4946917.362988336" >
		</node>
		<node id="2041914137" x="654406.5379550604" y="4946938.666866203" >
		</node>
		<node id="2041914141" x="654474.8490051964" y="4946941.8782300195" >
		</node>
		<node id="2041914186" x="654424.7213097387" y="4946994.018249072" >
		</node>
		<node id="2041914189" x="654387.1789746127" y="4947001.534590334" >
		</node>
		<node id="2041914193" x="654284.0270451591" y="4947013.663504293" >
		</node>
		<node id="2041914198" x="654289.0643720946" y="4947026.94337006" >
		</node>
		<node id="2041914207" x="654257.428920966" y="4947485.338648558" >
		</node>
		<node id="2050269990" x="654496.3139303988" y="4946157.97471959" >
		</node>
		<node id="2050270045" x="654536.8334135369" y="4946247.114938772" >
		</node>
		<node id="2050270110" x="654619.806553163" y="4946429.62168209" >
		</node>
		<node id="2050270130" x="654889.5028503499" y="4946804.461408232" >
		</node>
		<node id="2050270134" x="654866.1244365672" y="4946829.2865414955" >
		</node>
		<node id="2050270139" x="654786.4320799514" y="4946884.194125599" >
		</node>
		<node id="2050270141" x="654766.8658192735" y="4946897.273957028" >
		</node>
		<node id="2090827905" x="654506.2753991927" y="4946583.431268701" >
		</node>
		<node id="2289502127" x="653608.5321405636" y="4947701.643438129" >
		</node>
		<node id="2289502130" x="653670.7736217155" y="4947802.587320541" >
		</node>
		<node id="2289502131" x="653636.6097359434" y="4947787.025632038" >
		</node>
		<node id="2289502134" x="653655.5282195227" y="4947807.959644369" >
		</node>
		<node id="2289502140" x="653625.1526599912" y="4947752.176038565" >
		</node>
		<node id="250854391" x="653295.3677700232" y="4946586.129417275" >
		</node>
		<node id="250854397" x="653385.9947783696" y="4946490.895935953" >
		</node>
		<node id="250854401" x="653386.5473068038" y="4946463.612074488" >
		</node>
		<node id="250854411" x="653391.993419953" y="4946492.1831323225" >
		</node>
		<node id="250854412" x="653405.8430146109" y="4946482.231127966" >
		</node>
		<node id="250854413" x="653406.273096471" y="4946473.138640525" >
		</node>
		<node id="250857516" x="653368.4888656002" y="4946307.63733615" >
		</node>
		<node id="250857518" x="653294.0479190494" y="4946351.528747692" >
		</node>
		<node id="250857519" x="653209.9913008008" y="4946406.8630612455" >
		</node>
		<node id="250857521" x="653138.5867297207" y="4946457.296735941" >
		</node>
		<node id="250857522" x="652977.5461752884" y="4946566.403811171" >
		</node>
		<node id="255384560" x="654840.2622488431" y="4946854.1522506885" >
		</node>
		<node id="255384869" x="654799.0552047364" y="4946887.419708914" >
		</node>
		<node id="255384882" x="654261.0676678272" y="4947068.576498071" >
		</node>
		<node id="255384886" x="654679.7294992945" y="4946952.38234046" >
		</node>
		<node id="255384897" x="654216.8220297556" y="4947086.103480813" >
		</node>
		<node id="255384904" x="654119.1798563406" y="4947142.668792965" >
		</node>
		<node id="255396463" x="652612.9715833652" y="4948045.816465553" >
		</node>
		<node id="255396465" x="652981.3982915912" y="4947764.9591720775" >
		</node>
		<node id="255396511" x="652965.3917526227" y="4947356.3928978825" >
		</node>
		<node id="255396512" x="652951.982951039" y="4947014.174715387" >
		</node>
		<node id="255396514" x="652947.9836985379" y="4946870.493376109" >
		</node>
		<node id="266699792" x="654733.5358081871" y="4946629.17130147" >
		</node>
		<node id="266699793" x="654503.5568173728" y="4946525.604205839" >
		</node>
		<node id="269761437" x="654306.1329458986" y="4946069.738376685" >
		</node>
		<node id="2740309586" x="654206.3414877028" y="4946390.231463276" >
		</node>
		<node id="282193678" x="653040.0995912997" y="4947911.9041322945" >
		</node>
		<node id="282193752" x="652574.9906892098" y="4948082.341084293" >
		</node>
		<node id="282193760" x="652989.129022223" y="4947885.266716889" >
		</node>
		<node id="282193762" x="652996.8849718606" y="4947906.734531877" >
		</node>
		<node id="282193763" x="653028.0394028777" y="4947915.775135552" >
		</node>
		<node id="282193768" x="652465.6520032405" y="4947790.740940373" >
		</node>
		<node id="282259048" x="654745.6492013962" y="4946921.962334703" >
		</node>
		<node id="282259080" x="654748.4738751545" y="4946676.532392986" >
		</node>
		<node id="282259081" x="654743.8827430585" y="4946651.603700229" >
		</node>
		<node id="282259086" x="654742.0932325091" y="4946641.857862463" >
		</node>
		<node id="282259087" x="654751.4240845854" y="4946623.909113397" >
		</node>
		<node id="282259088" x="654774.95223763" y="4946614.036179807" >
		</node>
		<node id="282504713" x="653416.7433794062" y="4947652.582640506" >
		</node>
		<node id="282504715" x="653431.7212543504" y="4947647.792456778" >
		</node>
		<node id="282504716" x="653443.4612296982" y="4947646.415312279" >
		</node>
		<node id="282504717" x="653482.7762626199" y="4947668.555816292" >
		</node>
		<node id="282504719" x="653474.9421283804" y="4947651.431250406" >
		</node>
		<node id="282504720" x="653474.7585666155" y="4947623.774174322" >
		</node>
		<node id="282504722" x="653486.5689359562" y="4947602.415023426" >
		</node>
		<node id="282504723" x="653514.7990125939" y="4947717.175663112" >
		</node>
		<node id="282504729" x="653485.4767678839" y="4947589.629697629" >
		</node>
		<node id="282504730" x="653500.7813283089" y="4947567.431107191" >
		</node>
		<node id="282504731" x="653507.413363789" y="4947542.69239168" >
		</node>
		<node id="282504732" x="653512.428014733" y="4947506.911948877" >
		</node>
		<node id="282504733" x="653516.9225688732" y="4947492.014286422" >
		</node>
		<node id="282504734" x="653531.6437547388" y="4947471.680230747" >
		</node>
		<node id="282504735" x="653549.3969186754" y="4947460.276489434" >
		</node>
		<node id="282504736" x="653535.7486646671" y="4947474.845391078" >
		</node>
		<node id="282504737" x="653527.8928738451" y="4947492.997476995" >
		</node>
		<node id="282504738" x="653531.7313912746" y="4947509.704802086" >
		</node>
		<node id="282504739" x="653546.3024777358" y="4947521.376793115" >
		</node>
		<node id="282504740" x="653565.0030437283" y="4947523.499665986" >
		</node>
		<node id="282504741" x="653582.3339430152" y="4947519.510425301" >
		</node>
		<node id="282504742" x="653603.3237057582" y="4947419.034854239" >
		</node>
		<node id="282504745" x="653620.3142859788" y="4947414.693060683" >
		</node>
		<node id="282504747" x="653722.315283423" y="4947496.565907583" >
		</node>
		<node id="282504751" x="653547.6767252594" y="4947324.761733309" >
		</node>
		<node id="282504757" x="653585.6219236015" y="4947364.553281761" >
		</node>
		<node id="282504758" x="653731.6499425555" y="4947512.281626346" >
		</node>
		<node id="282504759" x="653732.3507437137" y="4947531.492968399" >
		</node>
		<node id="282504760" x="653722.7868989739" y="4947548.403827041" >
		</node>
		<node id="282504761" x="653593.7863251704" y="4947640.641214791" >
		</node>
		<node id="282504762" x="653568.7060495784" y="4947670.998551723" >
		</node>
		<node id="282504763" x="653533.5340591086" y="4947696.136796594" >
		</node>
		<node id="282504764" x="653496.099498046" y="4947689.000690984" >
		</node>
		<node id="282504767" x="653539.1958537739" y="4947708.208302329" >
		</node>
		<node id="282504768" x="653530.161110242" y="4947733.923515796" >
		</node>
		<node id="282504769" x="653532.9366368501" y="4947765.976859877" >
		</node>
		<node id="282504770" x="653744.4826592603" y="4947563.313450031" >
		</node>
		<node id="282504771" x="653753.6871765065" y="4947545.838344709" >
		</node>
		<node id="282504772" x="653754.0108506137" y="4947531.57508825" >
		</node>
		<node id="282504773" x="653738.5838656184" y="4947508.890042101" >
		</node>
		<node id="282504774" x="653627.6238896402" y="4947614.6046064515" >
		</node>
		<node id="282504782" x="653625.7060199379" y="4947619.871693743" >