<routes xmlns:xsi="http://www.w3.org/2001/XMLSchema-instance" xsi:noNamespaceSchemaLocation="http://sumo.dlr.de/xsd/routes_file.xsd">
  <vType id="car" vClass="passenger"/>
  <vType id="bicycle" vClass="bicycle"/>

    <trip id="1123_0" depart="21340.00" from="1744" to="968" type="car" />
    <trip id="512_0" depart="21635.00" from="6264" to="1593" type="car" />
    <trip id="1930_0" depart="21709.00" from="2189" to="4448" type="car" />
    <trip id="514_0" depart="21919.00" from="5972" to="1381" type="car" />
    <trip id="972_0" depart="22173.00" from="4766" to="5379" type="car" />
    <trip id="1232_0" depart="22215.00" from="1406" to="3895" type="car" />
    <trip id="743_0" depart="22274.00" from="1794" to="367" type="car" />
    <trip id="2118_0" depart="22291.00" from="6020" to="3975" type="car" />
    <trip id="1071_0" depart="22546.00" from="1752" to="4356" type="car" />
    <trip id="469_0" depart="22629.00" from="3601" to="4981" type="car" />
    <trip id="94_0" depart="22798.00" from="100" to="3901" type="car" />
    <trip id="1535_0" depart="22886.00" from="1458" to="1224" type="car" />
    <trip id="2296_0" depart="23038.00" from="2995" to="1729" type="car" />
    <trip id="876_0" depart="23083.00" from="1594" to="5173" type="car" />
    <trip id="2172_0" depart="23148.00" from="5307" to="5003" type="car" />
    <trip id="2201_0" depart="23294.00" from="4808" to="3082" type="car" />
    <trip id="808_0" depart="23347.00" from="1401" to="3772" type="car" />
    <trip id="1589_0" depart="23423.00" from="441" to="1582" type="car" />
    <trip id="428_0" depart="23500.00" from="5304" to="3334" type="car" />
    <trip id="1805_0" depart="23556.00" from="5218" to="4842" type="car" />
    <trip id="510_0" depart="23672.00" from="1295" to="3009" type="car" />
    <trip id="2058_0" depart="23680.00" from="6199" to="5012" type="car" />
    <trip id="887_0" depart="23728.00" from="6025" to="5703" type="car" />
    <trip id="2211_0" depart="23972.00" from="4944" to="1579" type="car" />
    <trip id="2224_0" depart="24105.00" from="2247" to="2694" type="car" />
    <trip id="2446_0" depart="24116.00" from="1152" to="3992" type="car" />
    <trip id="1688_0" depart="24130.00" from="2956" to="3837" type="car" />
    <trip id="626_0" depart="24154.00" from="174" to="4665" type="car" />
    <trip id="2109_0" depart="24193.00" from="6307" to="245" type="car" />
    <trip id="1659_0" depart="24203.00" from="5860" to="6105" type="car" />
    <trip id="1390_0" depart="24283.00" from="1713" to="5657" type="car" />
    <trip id="2439_0" depart="24288.00" from="4593" to="6359" type="car" />
    <trip id="1299_0" depart="24423.00" from="3826" to="3408" type="car" />
    <trip id="1844_0" depart="24453.00" from="3425" to="1953" type="car" />
    <trip id="1026_0" depart="24467.00" from="712" to="3873" type="car" />
    <trip id="1853_0" depart="24508.00" from="5598" to="5603" type="car" />
    <trip id="1723_0" depart="24515.00" from="1043" to="5470" type="car" />
    <trip id="59_0" depart="24517.00" from="4311" to="771" type="car" />
    <trip id="458_0" depart="24546.00" from="6214" to="1728" type="car" />
    <trip id="2308_0" depart="24592.00" from="4474" to="2851" type="car" />
    <trip id="485_0" depart="24617.00" from="5560" to="662" type="car" />
    <trip id="2220_0" depart="24644.00" from="5236" to="3607" type="car" />
    <trip id="2053_0" depart="24660.00" from="570" to="3613" type="car" />
    <trip id="1777_0" depart="24748.00" from="417" to="348" type="car" />
    <trip id="2248_0" depart="24850.00" from="4447" to="3678" type="car" />
    <trip id="1605_0" depart="24853.00" from="559" to="3983" type="car" />
    <trip id="1877_0" depart="24873.00" from="5354" to="406" type="car" />
    <trip id="180_0" depart="24902.00" from="5736" to="3714" type="car" />
    <trip id="1936_0" depart="24931.00" from="4510" to="4622" type="car" />
    <trip id="1155_0" depart="24942.00" from="3792" to="843" type="car" />
    <trip id="1740_0" depart="24959.00" from="1139" to="4226" type="car" />
    <trip id="250_0" depart="25032.00" from="1508" to="3312" type="car" />
    <trip id="310_0" depart="25032.00" from="5481" to="237" type="car" />
    <trip id="1173_0" depart="25130.00" from="3807" to="248" type="car" />
    <trip id="414_0" depart="25233.00" from="4849" to="5267" type="car" />
    <trip id="2325_0" depart="25255.00" from="5818" to="5126" type="car" />
    <trip id="943_0" depart="25263.00" from="146" to="941" type="car" />
    <trip id="558_0" depart="25285.00" from="4865" to="602" type="car" />
    <trip id="1029_0" depart="25331.00" from="1513" to="1686" type="car" />
    <trip id="930_0" depart="25343.00" from="2329" to="4056" type="car" />
    <trip id="2351_0" depart="25357.00" from="1870" to="4311" type="car" />
    <trip id="403_0" depart="25366.00" from="4540" to="4495" type="car" />
    <trip id="2119_0" depart="25373.00" from="5175" to="4075" type="car" />
    <trip id="1287_0" depart="25383.00" from="4437" to="5769" type="car" />
    <trip id="2279_0" depart="25459.00" from="321" to="1777" type="car" />
    <trip id="1058_0" depart="25485.00" from="4995" to="5492" type="car" />
    <trip id="579_0" depart="25505.00" from="5842" to="1625" type="car" />
    <trip id="1040_0" depart="25555.00" from="4207" to="4204" type="car" />
    <trip id="542_0" depart="25606.00" from="4965" to="3875" type="car" />
    <trip id="634_0" depart="25665.00" from="5619" to="448" type="car" />
    <trip id="641_0" depart="25696.00" from="3920" to="6325" type="car" />
    <trip id="905_0" depart="25708.00" from="3848" to="3978" type="car" />
    <trip id="766_0" depart="25717.00" from="3799" to="1774" type="car" />
    <trip id="1088_0" depart="25748.00" from="2367" to="2476" type="car" />
    <trip id="256_0" depart="25748.00" from="3179" to="6209" type="car" />
    <trip id="1996_0" depart="25764.00" from="4671" to="65" type="car" />
    <trip id="1652_0" depart="25771.00" from="3276" to="2882" type="car" />
    <trip id="36_0" depart="25808.00" from="3129" to="74" type="car" />
    <trip id="246_0" depart="25829.00" from="4204" to="2058" type="car" />
    <trip id="1789_0" depart="25872.00" from="5728" to="3293" type="car" />
    <trip id="2066_0" depart="25895.00" from="5528" to="4413" type="car" />
    <trip id="895_0" depart="25898.00" from="1906" to="2392" type="car" />
    <trip id="2083_0" depart="25925.00" from="295" to="4718" type="car" />
    <trip id="2055_0" depart="25933.00" from="757" to="3360" type="car" />
    <trip id="1726_0" depart="25949.00" from="1124" to="6197" type="car" />
    <trip id="2097_0" depart="25955.00" from="4048" to="2049" type="car" />
    <trip id="484_0" depart="25993.00" from="3288" to="5438" type="car" />
    <trip id="1797_0" depart="26038.00" from="6102" to="4331" type="car" />
    <trip id="1358_0" depart="26043.00" from="1815" to="6163" type="car" />
    <trip id="356_0" depart="26069.00" from="3858" to="2431" type="car" />
    <trip id="1672_0" depart="26079.00" from="197" to="245" type="car" />
    <trip id="1095_0" depart="26081.00" from="5315" to="901" type="car" />
    <trip id="2037_0" depart="26107.00" from="3416" to="813" type="car" />
    <trip id="2291_0" depart="26123.00" from="5518" to="2822" type="car" />
    <trip id="931_0" depart="26136.00" from="443" to="5146" type="car" />
    <trip id="2476_0" depart="26145.00" from="4782" to="2303" type="car" />
    <trip id="792_0" depart="26168.00" from="4268" to="6001" type="car" />
    <trip id="1452_0" depart="26172.00" from="4834" to="953" type="car" />
    <trip id="1873_0" depart="26179.00" from="4549" to="4403" type="car" />
    <trip id="1719_0" depart="26187.00" from="38" to="2349" type="car" />
    <trip id="1107_0" depart="26197.00" from="4784" to="2415" type="car" />
    <trip id="396_0" depart="26211.00" from="6178" to="2645" type="car" />
    <trip id="1022_0" depart="26220.00" from="5698" to="1711" type="car" />
    <trip id="1884_0" depart="26236.00" from="4517" to="6164" type="car" />
    <trip id="1295_0" depart="26245.00" from="5473" to="505" type="car" />
    <trip id="1881_0" depart="26287.00" from="5553" to="5102" type="car" />
    <trip id="1865_0" depart="26310.00" from="2187" to="2333" type="car" />
    <trip id="1526_0" depart="26313.00" from="587" to="1359" type="car" />
    <trip id="573_0" depart="26323.00" from="1656" to="3111" type="car" />
    <trip id="1689_0" depart="26325.00" from="1540" to="965" type="car" />
    <trip id="2443_0" depart="26336.00" from="937" to="218" type="car" />
    <trip id="316_0" depart="26338.00" from="3080" to="2493" type="car" />
    <trip id="2260_0" depart="26375.00" from="2504" to="5907" type="car" />
    <trip id="1260_0" depart="26383.00" from="1159" to="1149" type="car" />
    <trip id="612_0" depart="26388.00" from="2800" to="4773" type="car" />
    <trip id="90_0" depart="26388.00" from="2912" to="962" type="car" />
    <trip id="2056_0" depart="26396.00" from="6202" to="6097" type="car" />
    <trip id="2320_0" depart="26417.00" from="819" to="4643" type="car" />
    <trip id="2391_0" depart="26427.00" from="1252" to="5541" type="car" />
    <trip id="894_0" depart="26450.00" from="1929" to="2896" type="car" />
    <trip id="1937_0" depart="26467.00" from="5155" to="5852" type="car" />
    <trip id="2179_0" depart="26476.00" from="165" to="4694" type="car" />
    <trip id="394_0" depart="26495.00" from="231" to="341" type="car" />
    <trip id="2305_0" depart="26513.00" from="2486" to="2788" type="car" />
    <trip id="1692_0" depart="26517.00" from="4135" to="1154" type="car" />
    <trip id="668_0" depart="26522.00" from="3225" to="3874" type="car" />
    <trip id="893_0" depart="26533.00" from="636" to="2988" type="car" />
    <trip id="728_0" depart="26534.00" from="5147" to="3830" type="car" />
    <trip id="1010_0" depart="26545.00" from="731" to="5888" type="car" />
    <trip id="859_0" depart="26559.00" from="3105" to="2970" type="car" />
    <trip id="454_0" depart="26584.00" from="6298" to="344" type="car" />
    <trip id="323_0" depart="26586.00" from="2877" to="4716" type="car" />
    <trip id="1574_0" depart="26600.00" from="2420" to="3112" type="car" />
    <trip id="1758_0" depart="26613.00" from="2336" to="4792" type="car" />
    <trip id="1309_0" depart="26658.00" from="389" to="6214" type="car" />
    <trip id="448_0" depart="26666.00" from="2926" to="3201" type="car" />
    <trip id="145_0" depart="26673.00" from="1408" to="2983" type="car" />
    <trip id="52_0" depart="26682.00" from="4154" to="5738" type="car" />
    <trip id="1028_0" depart="26687.00" from="5851" to="227" type="car" />
    <trip id="1290_0" depart="26692.00" from="1781" to="4071" type="car" />
    <trip id="1510_0" depart="26693.00" from="3356" to="105" type="car" />
    <trip id="1578_0" depart="26711.00" from="4886" to="213" type="car" />
    <trip id="1201_0" depart="26726.00" from="5460" to="462" type="car" />
    <trip id="699_0" depart="26730.00" from="2354" to="161" type="car" />
    <trip id="288_0" depart="26754.00" from="5236" to="847" type="car" />
    <trip id="2177_0" depart="26768.00" from="2894" to="4287" type="car" />
    <trip id="120_0" depart="26771.00" from="5322" to="6064" type="car" />
    <trip id="2361_0" depart="26777.00" from="4322" to="1370" type="car" />
    <trip id="544_0" depart="26789.00" from="742" to="1205" type="car" />
    <trip id="2417_0" depart="26819.00" from="6299" to="2511" type="car" />
    <trip id="590_0" depart="26841.00" from="4951" to="691" type="car" />
    <trip id="1279_0" depart="26857.00" from="1830" to="1631" type="car" />
    <trip id="1995_0" depart="26877.00" from="2602" to="976" type="car" />
    <trip id="865_0" depart="26887.00" from="1041" to="5475" type="car" />
    <trip id="2163_0" depart="26898.00" from="2644" to="3259" type="car" />
    <trip id="478_0" depart="26901.00" from="966" to="3489" type="car" />
    <trip id="1677_0" depart="26912.00" from="6188" to="640" type="car" />
    <trip id="74_0" depart="26931.00" from="2631" to="2067" type="car" />
    <trip id="1949_0" depart="26932.00" from="5021" to="1398" type="car" />
    <trip id="1669_0" depart="26935.00" from="2712" to="2981" type="car" />
    <trip id="1946_0" depart="26937.00" from="6160" to="1711" type="car" />
    <trip id="1163_0" depart="26941.00" from="6418" to="770" type="car" />
    <trip id="1469_0" depart="26960.00" from="5797" to="4177" type="car" />
    <trip id="238_0" depart="26965.00" from="3296" to="4054" type="car" />
    <trip id="898_0" depart="26975.00" from="2140" to="6054" type="car" />
    <trip id="1987_0" depart="26978.00" from="2318" to="1494" type="car" />
    <trip id="1954_0" depart="26980.00" from="1366" to="3372" type="car" />
    <trip id="1976_0" depart="26985.00" from="4011" to="2229" type="car" />
    <trip id="2167_0" depart="27007.00" from="5821" to="1224" type="car" />
    <trip id="1175_0" depart="27008.00" from="3623" to="3283" type="car" />
    <trip id="607_0" depart="27012.00" from="518" to="4496" type="car" />
    <trip id="480_0" depart="27016.00" from="5900" to="1409" type="car" />
    <trip id="703_0" depart="27017.00" from="2853" to="1140" type="car" />
    <trip id="1269_0" depart="27029.00" from="2829" to="2042" type="car" />
    <trip id="1387_0" depart="27030.00" from="4748" to="4759" type="car" />
    <trip id="1827_0" depart="27049.00" from="4945" to="3197" type="car" />
    <trip id="1323_0" depart="27051.00" from="6060" to="5799" type="car" />
    <trip id="1064_0" depart="27066.00" from="1946" to="6178" type="car" />
    <trip id="868_0" depart="27076.00" from="891" to="1067" type="car" />
    <trip id="13_0" depart="27078.00" from="5739" to="1922" type="car" />
    <trip id="2494_0" depart="27092.00" from="1647" to="4323" type="car" />
    <trip id="1698_0" depart="27104.00" from="5619" to="3282" type="car" />
    <trip id="2387_0" depart="27107.00" from="2122" to="1900" type="car" />
    <trip id="873_0" depart="27144.00" from="5153" to="5410" type="car" />
    <trip id="1461_0" depart="27149.00" from="449" to="3025" type="car" />
    <trip id="1319_0" depart="27159.00" from="4743" to="3237" type="car" />
    <trip id="2105_0" depart="27159.00" from="89" to="6046" type="car" />
    <trip id="1635_0" depart="27162.00" from="6423" to="5345" type="car" />
    <trip id="1823_0" depart="27173.00" from="5169" to="3448" type="car" />
    <trip id="2125_0" depart="27178.00" from="5919" to="3945" type="car" />
    <trip id="317_0" depart="27178.00" from="6113" to="1520" type="car" />
    <trip id="1370_0" depart="27189.00" from="2449" to="4192" type="car" />
    <trip id="1013_0" depart="27193.00" from="1199" to="6306" type="car" />
    <trip id="1999_0" depart="27205.00" from="3616" to="1375" type="car" />
    <trip id="114_0" depart="27213.00" from="5157" to="4263" type="car" />
    <trip id="1829_0" depart="27231.00" from="1091" to="2995" type="car" />
    <trip id="603_0" depart="27257.00" from="6394" to="4919" type="car" />
    <trip id="443_0" depart="27268.00" from="2480" to="2069" type="car" />
    <trip id="2407_0" depart="27269.00" from="423" to="2148" type="car" />
    <trip id="1472_0" depart="27271.00" from="4324" to="5224" type="car" />
    <trip id="1651_0" depart="27276.00" from="4802" to="5248" type="car" />
    <trip id="551_0" depart="27277.00" from="20" to="6281" type="car" />
    <trip id="682_0" depart="27295.00" from="1830" to="2371" type="car" />
    <trip id="2046_0" depart="27314.00" from="1799" to="4049" type="car" />
    <trip id="132_0" depart="27315.00" from="2" to="4866" type="car" />
    <trip id="1765_0" depart="27336.00" from="4477" to="4950" type="car" />
    <trip id="1851_0" depart="27357.00" from="3382" to="3371" type="car" />
    <trip id="325_0" depart="27364.00" from="4767" to="4329" type="car" />
    <trip id="135_0" depart="27366.00" from="5870" to="1594" type="car" />
    <trip id="2274_0" depart="27377.00" from="4149" to="2732" type="car" />
    <trip id="2398_0" depart="27382.00" from="5646" to="3941" type="car" />
    <trip id="617_0" depart="27390.00" from="4467" to="5756" type="car" />
    <trip id="789_0" depart="27392.00" from="713" to="6188" type="car" />
    <trip id="1033_0" depart="27396.00" from="6001" to="1217" type="car" />
    <trip id="1807_0" depart="27404.00" from="1575" to="6298" type="car" />
    <trip id="372_0" depart="27404.00" from="3441" to="4175" type="car" />
    <trip id="1332_0" depart="27409.00" from="4417" to="4999" type="car" />
    <trip id="1220_0" depart="27419.00" from="133" to="3937" type="car" />
    <trip id="900_0" depart="27419.00" from="5437" to="1171" type="car" />
    <trip id="1994_0" depart="27433.00" from="2478" to="1540" type="car" />
    <trip id="2209_0" depart="27441.00" from="5737" to="6080" type="car" />
    <trip id="1035_0" depart="27446.00" from="3451" to="5492" type="car" />
    <trip id="779_0" depart="27456.00" from="5659" to="2091" type="car" />
    <trip id="1796_0" depart="27484.00" from="4685" to="5257" type="car" />
    <trip id="1324_0" depart="27487.00" from="5251" to="1553" type="car" />
    <trip id="1741_0" depart="27487.00" from="6003" to="6304" type="car" />
    <trip id="575_0" depart="27490.00" from="1289" to="4713" type="car" />
    <trip id="2075_0" depart="27496.00" from="2694" to="3212" type="car" />
    <trip id="798_0" depart="27507.00" from="2776" to="2091" type="car" />
    <trip id="474_0" depart="27524.00" from="1703" to="1015" type="car" />
    <trip id="2183_0" depart="27527.00" from="5486" to="3996" type="car" />
    <trip id="1371_0" depart="27534.00" from="1139" to="4455" type="car" />
    <trip id="2139_0" depart="27534.00" from="494" to="4216" type="car" />
    <trip id="1181_0" depart="27577.00" from="973" to="986" type="car" />
    <trip id="1584_0" depart="27579.00" from="3539" to="3824" type="car" />
    <trip id="1875_0" depart="27588.00" from="530" to="2088" type="car" />
    <trip id="2070_0" depart="27590.00" from="1869" to="2226" type="car" />
    <trip id="2313_0" depart="27597.00" from="3227" to="904" type="car" />
    <trip id="2203_0" depart="27605.00" from="565" to="1793" type="car" />
    <trip id="640_0" depart="27605.00" from="1050" to="2988" type="car" />
    <trip id="1547_0" depart="27628.00" from="1809" to="2056" type="car" />
    <trip id="606_0" depart="27634.00" from="3620" to="2969" type="car" />
    <trip id="483_0" depart="27636.00" from="4260" to="6004" type="car" />
    <trip id="2019_0" depart="27640.00" from="2284" to="5289" type="car" />
    <trip id="1202_0" depart="27641.00" from="3709" to="1980" type="car" />
    <trip id="1416_0" depart="27646.00" from="6014" to="2366" type="car" />
    <trip id="408_0" depart="27650.00" from="2829" to="4459" type="car" />
    <trip id="1507_0" depart="27664.00" from="1607" to="5212" type="car" />
    <trip id="1493_0" depart="27669.00" from="2109" to="4561" type="car" />
    <trip id="495_0" depart="27671.00" from="3970" to="4146" type="car" />
    <trip id="664_0" depart="27671.00" from="183" to="2361" type="car" />
    <trip id="1709_0" depart="27688.00" from="6160" to="6235" type="car" />
    <trip id="2104_0" depart="27690.00" from="3460" to="593" type="car" />
    <trip id="1194_0" depart="27692.00" from="5674" to="888" type="car" />
    <trip id="1210_0" depart="27700.00" from="1954" to="576" type="car" />
    <trip id="644_0" depart="27702.00" from="2024" to="5969" type="car" />
    <trip id="1185_0" depart="27703.00" from="3230" to="2347" type="car" />
    <trip id="92_0" depart="27716.00" from="157" to="5199" type="car" />
    <trip id="1462_0" depart="27726.00" from="217" to="3051" type="car" />
    <trip id="1746_0" depart="27746.00" from="4053" to="4488" type="car" />
    <trip id="866_0" depart="27753.00" from="3742" to="4926" type="car" />
    <trip id="1289_0" depart="27757.00" from="3622" to="6281" type="car" />
    <trip id="241_0" depart="27759.00" from="5578" to="4857" type="car" />
    <trip id="736_0" depart="27766.00" from="2842" to="6423" type="car" />
    <trip id="496_0" depart="27769.00" from="2994" to="1671" type="car" />
    <trip id="131_0" depart="27771.00" from="4507" to="3933" type="car" />
    <trip id="1306_0" depart="27774.00" from="5227" to="2467" type="car" />
    <trip id="141_0" depart="27780.00" from="3860" to="252" type="car" />
    <trip id="1312_0" depart="27791.00" from="561" to="385" type="car" />
    <trip id="1567_0" depart="27791.00" from="1632" to="1213" type="car" />
    <trip id="1245_0" depart="27797.00" from="116" to="3534" type="car" />
    <trip id="526_0" depart="27802.00" from="2988" to="4927" type="car" />
    <trip id="2289_0" depart="27821.00" from="3263" to="3748" type="car" />
    <trip id="171_0" depart="27848.00" from="4311" to="2980" type="car" />
    <trip id="1525_0" depart="27863.00" from="3873" to="3886" type="car" />
    <trip id="1367_0" depart="27864.00" from="3787" to="1390" type="car" />
    <trip id="1030_0" depart="27870.00" from="135" to="5310" type="car" />
    <trip id="1761_0" depart="27871.00" from="6288" to="798" type="car" />
    <trip id="1053_0" depart="27876.00" from="3751" to="107" type="car" />
    <trip id="1302_0" depart="27916.00" from="6076" to="5590" type="car" />
    <trip id="675_0" depart="27945.00" from="1732" to="4265" type="car" />
    <trip id="500_0" depart="27950.00" from="3461" to="2847" type="car" />
    <trip id="1909_0" depart="27952.00" from="3824" to="1306" type="car" />
    <trip id="2488_0" depart="27958.00" from="6218" to="2258" type="car" />
    <trip id="2490_0" depart="27967.00" from="1864" to="4456" type="car" />
    <trip id="281_0" depart="27977.00" from="5360" to="4342" type="car" />
    <trip id="2021_0" depart="27978.00" from="1760" to="1078" type="car" />
    <trip id="178_0" depart="27979.00" from="4407" to="1202" type="car" />
    <trip id="2169_0" depart="27981.00" from="6076" to="4497" type="car" />
    <trip id="134_0" depart="28000.00" from="4563" to="1064" type="car" />
    <trip id="2299_0" depart="28001.00" from="6263" to="464" type="car" />
    <trip id="1568_0" depart="28002.00" from="4821" to="5793" type="car" />
    <trip id="1104_0" depart="28006.00" from="4687" to="6431" type="car" />
    <trip id="734_0" depart="28008.00" from="6255" to="3988" type="car" />
    <trip id="117_0" depart="28015.00" from="937" to="5391" type="car" />
    <trip id="2115_0" depart="28020.00" from="4173" to="6425" type="car" />
    <trip id="338_0" depart="28028.00" from="523" to="3358" type="car" />
    <trip id="302_0" depart="28043.00" from="1965" to="5556" type="car" />
    <trip id="1729_0" depart="28047.00" from="360" to="2645" type="car" />
    <trip id="2148_0" depart="28050.00" from="272" to="3714" type="car" />
    <trip id="1958_0" depart="28058.00" from="671" to="2776" type="car" />
    <trip id="376_0" depart="28058.00" from="2409" to="5133" type="car" />
    <trip id="67_0" depart="28065.00" from="3233" to="1514" type="car" />
    <trip id="1261_0" depart="28082.00" from="1844" to="6388" type="car" />
    <trip id="1016_0" depart="28085.00" from="4632" to="1662" type="car" />
    <trip id="1738_0" depart="28091.00" from="5430" to="6302" type="car" />
    <trip id="2310_0" depart="28092.00" from="2681" to="5792" type="car" />
    <trip id="257_0" depart="28103.00" from="3502" to="4641" type="car" />
    <trip id="2230_0" depart="28113.00" from="4541" to="1449" type="car" />
    <trip id="1318_0" depart="28115.00" from="551" to="5296" type="car" />
    <trip id="167_0" depart="28129.00" from="802" to="1915" type="car" />
    <trip id="1632_0" depart="28131.00" from="4598" to="2748" type="car" />
    <trip id="375_0" depart="28151.00" from="3799" to="1839" type="car" />
    <trip id="424_0" depart="28156.00" from="5099" to="231" type="car" />
    <trip id="1455_0" depart="28159.00" from="2919" to="206" type="car" />
    <trip id="1485_0" depart="28167.00" from="929" to="3270" type="car" />
    <trip id="29_0" depart="28169.00" from="119" to="2854" type="car" />
    <trip id="923_0" depart="28170.00" from="602" to="426" type="car" />
    <trip id="663_0" depart="28176.00" from="6016" to="3174" type="car" />
    <trip id="672_0" depart="28177.00" from="968" to="2862" type="car" />
    <trip id="1523_0" depart="28187.00" from="5720" to="4130" type="car" />
    <trip id="604_0" depart="28187.00" from="3109" to="5385" type="car" />
    <trip id="1325_0" depart="28189.00" from="6357" to="5583" type="car" />
    <trip id="198_0" depart="28216.00" from="5594" to="6177" type="car" />
    <trip id="1542_0" depart="28226.00" from="4905" to="5791" type="car" />
    <trip id="1671_0" depart="28235.00" from="2747" to="5922" type="car" />
    <trip id="2034_0" depart="28239.00" from="3131" to="521" type="car" />
    <trip id="705_0" depart="28239.00" from="112" to="2136" type="car" />
    <trip id="157_0" depart="28241.00" from="3344" to="1361" type="car" />
    <trip id="2429_0" depart="28243.00" from="5711" to="1111" type="car" />
    <trip id="975_0" depart="28243.00" from="2841" to="5031" type="car" />
    <trip id="300_0" depart="28255.00" from="1960" to="2928" type="car" />
    <trip id="1708_0" depart="28263.00" from="6162" to="2484" type="car" />
    <trip id="2123_0" depart="28263.00" from="3329" to="505" type="car" />
    <trip id="1706_0" depart="28268.00" from="6204" to="5557" type="car" />
    <trip id="2063_0" depart="28274.00" from="1282" to="2435" type="car" />
    <trip id="144_0" depart="28287.00" from="1656" to="1759" type="car" />
    <trip id="427_0" depart="28288.00" from="5328" to="3321" type="car" />
    <trip id="1683_0" depart="28292.00" from="5173" to="4336" type="car" />
    <trip id="2235_0" depart="28307.00" from="6110" to="1419" type="car" />
    <trip id="689_0" depart="28319.00" from="2794" to="2381" type="car" />
    <trip id="1059_0" depart="28329.00" from="5697" to="4067" type="car" />
    <trip id="261_0" depart="28338.00" from="5766" to="2398" type="car" />
    <trip id="1970_0" depart="28342.00" from="853" to="4610" type="car" />
    <trip id="407_0" depart="28351.00" from="5430" to="715" type="car" />
    <trip id="890_0" depart="28357.00" from="933" to="4520" type="car" />
    <trip id="2178_0" depart="28372.00" from="4325" to="2902" type="car" />
    <trip id="549_0" depart="28381.00" from="1411" to="5208" type="car" />
    <trip id="2337_0" depart="28389.00" from="514" to="5545" type="car" />
    <trip id="1042_0" depart="28392.00" from="3204" to="6051" type="car" />
    <trip id="1638_0" depart="28394.00" from="1086" to="3746" type="car" />
    <trip id="1778_0" depart="28394.00" from="3784" to="6305" type="car" />
    <trip id="467_0" depart="28397.00" from="6088" to="6427" type="car" />
    <trip id="342_0" depart="28406.00" from="1654" to="5801" type="car" />
    <trip id="162_0" depart="28407.00" from="3993" to="526" type="car" />
    <trip id="1600_0" depart="28410.00" from="5633" to="1113" type="car" />
    <trip id="1952_0" depart="28418.00" from="4909" to="491" type="car" />
    <trip id="669_0" depart="28431.00" from="1329" to="4910" type="car" />
    <trip id="2192_0" depart="28439.00" from="2281" to="4426" type="car" />
    <trip id="1696_0" depart="28452.00" from="2090" to="5660" type="car" />
    <trip id="1737_0" depart="28458.00" from="4657" to="3462" type="car" />
    <trip id="993_0" depart="28482.00" from="2818" to="1473" type="car" />
    <trip id="60_0" depart="28487.00" from="473" to="2692" type="car" />
    <trip id="2114_0" depart="28488.00" from="3484" to="2733" type="car" />
    <trip id="1932_0" depart="28496.00" from="2430" to="1368" type="car" />
    <trip id="1860_0" depart="28500.00" from="4113" to="1483" type="car" />
    <trip id="251_0" depart="28506.00" from="4278" to="5468" type="car" />
    <trip id="168_0" depart="28509.00" from="2111" to="5635" type="car" />
    <trip id="1842_0" depart="28515.00" from="306" to="2578" type="car" />
    <trip id="242_0" depart="28531.00" from="1579" to="1253" type="car" />
    <trip id="2492_0" depart="28531.00" from="5041" to="1076" type="car" />
    <trip id="727_0" depart="28540.00" from="4236" to="3433" type="car" />
    <trip id="1166_0" depart="28569.00" from="4609" to="3048" type="car" />
    <trip id="1135_0" depart="28572.00" from="2016" to="2805" type="car" />
    <trip id="416_0" depart="28572.00" from="6253" to="4695" type="car" />
    <trip id="1852_0" depart="28587.00" from="2569" to="3068" type="car" />
    <trip id="1376_0" depart="28588.00" from="2657" to="4668" type="car" />
    <trip id="1113_0" depart="28600.00" from="3747" to="2366" type="car" />
    <trip id="830_0" depart="28602.00" from="1177" to="2489" type="car" />
    <trip id="841_0" depart="28602.00" from="281" to="5246" type="car" />
    <trip id="576_0" depart="28611.00" from="3508" to="5845" type="car" />
    <trip id="2442_0" depart="28615.00" from="2173" to="4581" type="car" />
    <trip id="2327_0" depart="28621.00" from="6212" to="4764" type="car" />
    <trip id="1004_0" depart="28627.00" from="923" to="4336" type="car" />
    <trip id="1647_0" depart="28629.00" from="6165" to="888" type="car" />
    <trip id="222_0" depart="28633.00" from="5541" to="6043" type="car" />
    <trip id="2405_0" depart="28642.00" from="2737" to="1115" type="car" />
    <trip id="1562_0" depart="28658.00" from="1983" to="4984" type="car" />
    <trip id="277_0" depart="28666.00" from="1326" to="983" type="car" />
    <trip id="1091_0" depart="28683.00" from="4970" to="2197" type="car" />
    <trip id="18_0" depart="28685.00" from="2003" to="1460" type="car" />
    <trip id="1914_0" depart="28688.00" from="5658" to="4418" type="car" />
    <trip id="1628_0" depart="28689.00" from="2014" to="5241" type="car" />
    <trip id="589_0" depart="28703.00" from="1891" to="2769" type="car" />
    <trip id="2137_0" depart="28706.00" from="3669" to="3598" type="car" />