<?xml version="1.0" encoding="UTF-8"?>
<!DOCTYPE network SYSTEM "http://www.matsim.org/files/dtd/network_v2.dtd">
<network>

<!-- ====================================================================== -->

	<nodes>
		<node id="10026777060" x="175958.50321774243" y="4954871.828166632" >
		</node>
		<node id="10100994112" x="176312.41268325067" y="4953615.907801018" >
		</node>
		<node id="10101023022" x="176217.21619505918" y="4953658.2372040795" >
		</node>
		<node id="10101023041" x="176074.4698052911" y="4953827.505581187" >
		</node>
		<node id="10101023044" x="176050.9465073343" y="4953754.740969544" >
		</node>
		<node id="10101023045" x="176037.22643241758" y="4953765.296896332" >
		</node>
		<node id="10101023046" x="176542.06093627872" y="4953565.912600505" >
		</node>
		<node id="10101023047" x="176539.98562714795" y="4953561.138940024" >
		</node>
		<node id="10101023048" x="176539.17354593496" y="4953557.148301769" >
		</node>
		<node id="10101023049" x="176577.8861937627" y="4953535.562797901" >
		</node>
		<node id="10101023050" x="176580.4805948662" y="4953538.484083948" >
		</node>
		<node id="10101023051" x="176583.52488670096" y="4953543.086675459" >
		</node>
		<node id="10101023052" x="176585.28144485143" y="4953546.417467091" >
		</node>
		<node id="10101023053" x="176053.63361245708" y="4953758.871277714" >
		</node>
		<node id="10101023054" x="176049.67862997157" y="4953769.8499691775" >
		</node>
		<node id="10101023094" x="176256.14569056523" y="4953654.145140888" >
		</node>
		<node id="10559714130" x="176150.7848634238" y="4953685.392738582" >
		</node>
		<node id="1076629726" x="175884.9775182465" y="4953527.174450346" >
		</node>
		<node id="1076629727" x="175875.54038068978" y="4953516.044410075" >
		</node>
		<node id="1076629730" x="175875.698846184" y="4953501.481094281" >
		</node>
		<node id="1076629732" x="175879.5535356882" y="4953495.151233143" >
		</node>
		<node id="1076629735" x="175891.03891384223" y="4953488.515953036" >
		</node>
		<node id="1076629737" x="175897.054063197" y="4953488.169203405" >
		</node>
		<node id="1076629741" x="175910.09978128166" y="4953494.240218262" >
		</node>
		<node id="1076629743" x="175914.78485492" y="4953501.432865398" >
		</node>
		<node id="1076629746" x="175915.38149966975" y="4953514.733226459" >
		</node>
		<node id="1076629747" x="175911.88253355486" y="4953521.657698346" >
		</node>
		<node id="1076629749" x="175896.75275765284" y="4953529.790143804" >
		</node>
		<node id="1076629750" x="175890.67423775722" y="4953529.349392953" >
		</node>
		<node id="1076629757" x="177374.17900291434" y="4953027.680005782" >
		</node>
		<node id="1076629758" x="177376.20216558885" y="4953034.282824192" >
		</node>
		<node id="1076629761" x="177375.83187828725" y="4953041.1835038485" >
		</node>
		<node id="1076629764" x="177359.71571630915" y="4953056.343948218" >
		</node>
		<node id="1076629766" x="177352.77471208794" y="4953056.301283075" >
		</node>
		<node id="1076629767" x="177346.2641129649" y="4953053.898500694" >
		</node>
		<node id="1076629769" x="177338.08209274284" y="4953044.775097473" >
		</node>
		<node id="1076629770" x="177336.41860304557" y="4953038.054074115" >
		</node>
		<node id="1076629771" x="177337.16260044574" y="4953031.1569711985" >
		</node>
		<node id="1076629776" x="177351.62955225748" y="4953017.34847118" >
		</node>
		<node id="1076629777" x="177358.5620136045" y="4953016.901574154" >
		</node>
		<node id="1076629780" x="177365.2248502092" y="4953018.851311688" >
		</node>
		<node id="1076629789" x="177655.46661274682" y="4952706.229889874" >
		</node>
		<node id="1076629791" x="177656.8253464513" y="4952692.854338512" >
		</node>
		<node id="1076629793" x="177661.55490294" y="4952688.241575751" >
		</node>
		<node id="1076629794" x="177671.95741400134" y="4952686.285372738" >
		</node>
		<node id="1076629795" x="177681.0361821368" y="4952691.722880048" >
		</node>
		<node id="1076629797" x="177684.1725092933" y="4952699.929446657" >
		</node>
		<node id="1076629799" x="177678.934455611" y="4952712.184703059" >
		</node>
		<node id="1076629800" x="177667.29086504597" y="4952715.550367186" >
		</node>
		<node id="1131728895" x="179242.6182325522" y="4956341.808429415" >
		</node>
		<node id="1131728902" x="179085.83134970878" y="4954586.78025797" >
		</node>
		<node id="1131728912" x="180311.67065742245" y="4956306.923332612" >
		</node>
		<node id="1131728913" x="179097.0387229821" y="4954583.494244895" >
		</node>
		<node id="1131728918" x="179092.58742240258" y="4956134.040618834" >
		</node>
		<node id="1131728924" x="178954.8859713496" y="4955702.796830878" >
		</node>
		<node id="1131728995" x="179041.0495613495" y="4954525.044085035" >
		</node>
		<node id="1131729019" x="179024.44862791174" y="4956068.768922779" >
		</node>
		<node id="1131729027" x="178973.21787690563" y="4955621.816208057" >
		</node>
		<node id="1131729095" x="178945.36757488572" y="4955885.912208282" >
		</node>
		<node id="1131729107" x="179662.66923179862" y="4955896.974905379" >
		</node>
		<node id="1131729113" x="178956.3627080595" y="4956052.916714893" >
		</node>
		<node id="1131729116" x="181422.89994543215" y="4957313.579813294" >
		</node>
		<node id="1131729122" x="178894.93807357497" y="4955460.891013168" >
		</node>
		<node id="1131729134" x="181233.3273719538" y="4957118.917685436" >
		</node>
		<node id="1131729182" x="179274.50830098125" y="4954434.130449017" >
		</node>
		<node id="1131729203" x="180380.9927157848" y="4956431.479663775" >
		</node>
		<node id="1131729210" x="178938.12543888937" y="4955811.32769399" >
		</node>
		<node id="1131729216" x="182201.12764148542" y="4957630.347451808" >
		</node>
		<node id="1131729217" x="179184.21491269465" y="4955042.644958988" >
		</node>
		<node id="1131729226" x="181372.08153839107" y="4957288.621136888" >
		</node>
		<node id="1131729260" x="179118.54863121163" y="4954575.185555359" >
		</node>
		<node id="1131729279" x="179067.76617307484" y="4956216.936556005" >
		</node>
		<node id="1131729292" x="178939.7816603509" y="4955742.491611245" >
		</node>
		<node id="1131729363" x="179069.69414279237" y="4954575.790369683" >
		</node>
		<node id="1131729378" x="179061.09339519782" y="4956085.953363277" >
		</node>
		<node id="1131729380" x="179898.36014037096" y="4954130.954450363" >
		</node>
		<node id="1131729384" x="178965.49262486782" y="4955683.181540679" >
		</node>
		<node id="1131729385" x="179516.5904179591" y="4955829.447274206" >
		</node>
		<node id="1131729423" x="179501.45446644782" y="4954371.478250684" >
		</node>
		<node id="1131729452" x="178837.69681294909" y="4954604.32249548" >
		</node>
		<node id="1131729459" x="178911.91696606" y="4956014.539839605" >
		</node>
		<node id="1131729477" x="178963.9649762216" y="4956055.2998021385" >
		</node>
		<node id="1131729480" x="178927.39340195403" y="4955528.685181029" >
		</node>
		<node id="1131729483" x="181269.48414212232" y="4957154.121634344" >
		</node>
		<node id="1131729498" x="181162.188731361" y="4957076.291247904" >
		</node>
		<node id="1131729516" x="180578.12906003388" y="4956669.4762470415" >
		</node>
		<node id="1131729533" x="179306.88462592114" y="4954420.293181732" >
		</node>
		<node id="1131729547" x="178943.52927609393" y="4955843.419739488" >
		</node>
		<node id="1131729559" x="182103.1097783011" y="4957618.925449448" >
		</node>
		<node id="1131729567" x="178881.99555375573" y="4955179.973366066" >
		</node>
		<node id="1131729573" x="178639.94950278598" y="4956776.146562999" >
		</node>
		<node id="1131729584" x="181328.88513907482" y="4957249.644718082" >
		</node>
		<node id="1131729631" x="179167.22714573762" y="4954537.6631623665" >
		</node>
		<node id="1131729706" x="178959.98356260103" y="4956569.4578690715" >
		</node>
		<node id="1131729722" x="179077.6186335532" y="4954584.616557376" >
		</node>
		<node id="1131729760" x="179073.39823750226" y="4956100.296318691" >
		</node>
		<node id="1131729774" x="178960.512957738" y="4955694.064390644" >
		</node>
		<node id="1131729791" x="179086.8499125298" y="4953793.384238339" >
		</node>
		<node id="1131729829" x="181356.66796156904" y="4957277.913701322" >
		</node>
		<node id="1131729832" x="179016.32776526833" y="4954520.550652749" >
		</node>
		<node id="1131729841" x="178914.1479830327" y="4956021.689378171" >
		</node>
		<node id="1131729867" x="178987.3450275364" y="4956060.560855212" >
		</node>
		<node id="1131729872" x="178970.77398145158" y="4955614.699521399" >
		</node>
		<node id="1131729927" x="179428.77128207166" y="4954390.536171028" >
		</node>
		<node id="1131729945" x="178947.54329388967" y="4955876.16007809" >
		</node>
		<node id="1131729954" x="178937.25586148293" y="4956042.85489032" >
		</node>
		<node id="1131729956" x="181895.13116773253" y="4957524.572922317" >
		</node>
		<node id="1131729963" x="181276.01275600813" y="4957163.4310105555" >
		</node>
		<node id="1131730012" x="179222.9348701418" y="4954474.346004781" >
		</node>
		<node id="1131730015" x="180980.2961021458" y="4956972.077668265" >
		</node>
		<node id="1131730025" x="180586.1658943611" y="4956676.171365271" >
		</node>
		<node id="1131730029" x="180135.26227404253" y="4956178.059572552" >
		</node>
		<node id="1131730047" x="178937.44028366142" y="4955773.165374887" >
		</node>
		<node id="1131730060" x="178875.65956659423" y="4955428.2762313085" >
		</node>
		<node id="1131730072" x="179134.15933047188" y="4956428.61094424" >
		</node>
		<node id="122006295" x="177265.53033975972" y="4954299.881454055" >
		</node>
		<node id="122006296" x="177227.49686236546" y="4954342.276191612" >
		</node>
		<node id="122006299" x="177144.33909099782" y="4954464.449552763" >
		</node>
		<node id="122006302" x="177094.24989167153" y="4954522.505065644" >
		</node>
		<node id="122006305" x="177015.71033921273" y="4954582.409088666" >
		</node>
		<node id="1234767915" x="176681.1824138197" y="4953211.99753801" >
		</node>
		<node id="1234767917" x="176586.6135263854" y="4953555.549299239" >
		</node>
		<node id="1234767925" x="176646.20805808326" y="4953214.017619988" >
		</node>
		<node id="1234767926" x="176658.27256044472" y="4953189.893061644" >
		</node>
		<node id="1234767928" x="176539.77124395355" y="4953545.9263044065" >
		</node>
		<node id="1234767930" x="176649.94691743836" y="4953210.433653433" >
		</node>
		<node id="1234767935" x="176478.29959658725" y="4953283.095033115" >
		</node>
		<node id="1234767937" x="176554.25787074486" y="4953576.314885097" >
		</node>
		<node id="1234767938" x="176465.77217435912" y="4953275.783036732" >
		</node>
		<node id="1234767941" x="176578.9053471515" y="4953571.42639664" >
		</node>
		<node id="1234767944" x="176443.0649163766" y="4953213.355501425" >
		</node>
		<node id="1234767946" x="176550.35811494797" y="4953501.072825217" >
		</node>
		<node id="1234767950" x="176571.614682451" y="4953515.5756779425" >
		</node>
		<node id="1234767952" x="176598.02659438777" y="4953513.694727177" >
		</node>
		<node id="1234767954" x="176666.7195637831" y="4953202.064896418" >
		</node>
		<node id="1359255735" x="177698.6911747246" y="4952568.566406528" >
		</node>
		<node id="1359262854" x="177659.88479401957" y="4952660.696270098" >
		</node>
		<node id="1359262856" x="177642.36988114734" y="4952676.371156436" >
		</node>
		<node id="1419841622" x="177046.36034173652" y="4952809.562550069" >
		</node>
		<node id="1419841657" x="177183.8844041903" y="4952834.118273834" >
		</node>
		<node id="1419841705" x="177399.50730430405" y="4952993.9181541875" >
		</node>
		<node id="1433716823" x="178382.2474232578" y="4952531.276412551" >
		</node>
		<node id="1433716824" x="178536.09830996004" y="4952576.650901436" >
		</node>
		<node id="1433716825" x="178596.7147797984" y="4952598.353276588" >
		</node>
		<node id="1433716826" x="178571.53321253805" y="4952669.675099545" >
		</node>
		<node id="1433716827" x="178574.2395478777" y="4952694.4848629" >
		</node>
		<node id="1433716828" x="178522.32351325115" y="4952698.229322303" >
		</node>
		<node id="1433716829" x="178530.54018293432" y="4952713.822363413" >
		</node>
		<node id="1433716831" x="178478.3751650959" y="4952717.033933378" >
		</node>
		<node id="1433716844" x="178984.44843806222" y="4952727.148932438" >
		</node>
		<node id="1433716845" x="178874.56333074666" y="4952736.926291934" >
		</node>
		<node id="1433716846" x="178888.33905008808" y="4952744.136089734" >
		</node>
		<node id="1433716849" x="178197.02576891828" y="4952871.885644961" >
		</node>
		<node id="1433716850" x="178787.50948853703" y="4953097.531461741" >
		</node>
		<node id="1433716851" x="178783.4410232983" y="4953114.471344314" >
		</node>
		<node id="1433716852" x="178773.49405383854" y="4953127.160449278" >
		</node>
		<node id="1447327555" x="178751.35626176867" y="4954027.179960326" >
		</node>
		<node id="1450908801" x="180005.6265674833" y="4954059.607703193" >
		</node>
		<node id="1473360761" x="176479.91364368156" y="4953292.457718411" >
		</node>
		<node id="1473360772" x="176476.3371948601" y="4953299.7531944215" >
		</node>
		<node id="1473360775" x="176475.78718813142" y="4953308.121902495" >
		</node>
		<node id="1473360779" x="176474.7626655638" y="4953321.926673581" >
		</node>
		<node id="1476164942" x="178199.86404905206" y="4953371.9419070035" >
		</node>
		<node id="1476164945" x="178200.29433644016" y="4953373.55744336" >
		</node>
		<node id="1476164946" x="178200.23065574915" y="4953376.901435912" >
		</node>
		<node id="1476164947" x="178187.25528301793" y="4953378.083214919" >
		</node>
		<node id="1476164948" x="178199.72799291316" y="4953378.296244267" >
		</node>
		<node id="1476164949" x="178189.0392200445" y="4953379.430776684" >
		</node>
		<node id="1476164953" x="178190.95938159834" y="4953380.482006099" >
		</node>
		<node id="1476164955" x="178195.61027848237" y="4953381.307930807" >
		</node>
		<node id="1476164957" x="178412.23785609868" y="4953373.579172572" >
		</node>
		<node id="1476164959" x="178388.13512011716" y="4953379.6916994145" >
		</node>
		<node id="1476164961" x="178436.6043409687" y="4953379.135270431" >
		</node>
		<node id="1476164963" x="178458.64612814347" y="4953394.339746506" >
		</node>
		<node id="1476164965" x="178268.00504343846" y="4953482.954979272" >
		</node>
		<node id="1476164966" x="178249.85139566142" y="4953500.776038538" >
		</node>
		<node id="1476164968" x="178238.71604827273" y="4953503.4695573095" >
		</node>
		<node id="1476164970" x="178269.176083118" y="4953502.45147052" >
		</node>
		<node id="1476164972" x="178266.42760111787" y="4953505.9850403275" >
		</node>
		<node id="1476164987" x="178133.599406065" y="4953604.583833097" >
		</node>
		<node id="1476164995" x="178133.347943365" y="4953618.817143008" >
		</node>
		<node id="1476165000" x="177875.3327307626" y="4953691.396961214" >
		</node>
		<node id="1476165001" x="177880.93863174197" y="4953694.480128991" >
		</node>
		<node id="1476165002" x="178079.90697882598" y="4953701.58568978" >
		</node>
		<node id="1476165003" x="177880.7827074029" y="4953713.797942838" >
		</node>
		<node id="1476165004" x="178104.10843562614" y="4953717.2268362455" >
		</node>
		<node id="1476165006" x="177891.52340157446" y="4953727.560371677" >
		</node>
		<node id="1476165008" x="178086.92280049378" y="4953717.794919069" >
		</node>
		<node id="1476165015" x="177908.30617645703" y="4953733.248106662" >
		</node>
		<node id="1476165017" x="178109.1209385252" y="4953733.903543381" >
		</node>
		<node id="1476165018" x="178085.82633028738" y="4953734.99920521" >
		</node>
		<node id="1476165019" x="178106.2050700416" y="4953750.641808565" >
		</node>
		<node id="1476165020" x="177861.25907312962" y="4953769.718539972" >
		</node>
		<node id="1476165022" x="178062.5742909261" y="4953770.069028934" >
		</node>
		<node id="1476165023" x="178067.50841824757" y="4953779.60025641" >
		</node>
		<node id="1476165031" x="177840.0456584447" y="4953829.509915714" >
		</node>
		<node id="1476165033" x="177986.522603554" y="4953830.804051571" >
		</node>
		<node id="1476165035" x="177994.40078234067" y="4953839.609181508" >
		</node>
		<node id="1476165036" x="177835.3136128261" y="4953850.604227149" >
		</node>
		<node id="1476165042" x="177892.24820976862" y="4953907.90702414" >
		</node>
		<node id="1476165044" x="177882.79027008882" y="4953908.368203676" >
		</node>
		<node id="1476167527" x="177891.7378442703" y="4953917.420485763" >
		</node>
		<node id="1476167533" x="177902.8780190724" y="4953926.775323219" >
		</node>
		<node id="1476167541" x="177952.8952181129" y="4954079.849331298" >
		</node>
		<node id="1476167543" x="177959.5110871666" y="4954079.452180356" >
		</node>
		<node id="1476167545" x="177961.92663287005" y="4954080.4006392965" >
		</node>
		<node id="1476167547" x="177948.92959138047" y="4954082.552966641" >
		</node>
		<node id="1476167548" x="177964.71290236933" y="4954082.566697594" >
		</node>
		<node id="1476167549" x="177946.31137913524" y="4954087.572454076" >
		</node>
		<node id="1476167550" x="177967.0798550329" y="4954086.68024042" >
		</node>
		<node id="1476167551" x="177946.07240800856" y="4954089.78933745" >
		</node>
		<node id="1476167559" x="177967.5522389295" y="4954089.774766261" >
		</node>
		<node id="1476167561" x="177946.24930147734" y="4954091.740461206" >
		</node>
		<node id="1476167562" x="177967.39801110042" y="4954091.619925273" >
		</node>
		<node id="1476167563" x="177948.99087391334" y="4954097.149354396" >
		</node>
		<node id="1476167564" x="177965.3809148252" y="4954096.264171381" >
		</node>
		<node id="1476167565" x="177963.7042811241" y="4954098.018301971" >
		</node>
		<node id="1476167566" x="177950.89842960256" y="4954098.746796213" >
		</node>
		<node id="1476167567" x="177961.30826527887" y="4954099.529949041" >
		</node>
		<node id="1476167575" x="177953.72181387973" y="4954100.064651506" >
		</node>
		<node id="1476173560" x="177374.63618199417" y="4954148.092706196" >
		</node>
		<node id="1476173566" x="177394.32390786638" y="4954164.836775197" >
		</node>
		<node id="1476173571" x="177351.79867870768" y="4954251.231775329" >
		</node>
		<node id="1476173573" x="177302.44556048303" y="4954285.951474389" >
		</node>
		<node id="1476173575" x="177373.89885990915" y="4954261.240158498" >
		</node>
		<node id="1476173578" x="177201.4101835636" y="4954363.125940376" >
		</node>
		<node id="1476173581" x="176998.09715633467" y="4954401.301982188" >
		</node>
		<node id="1476173590" x="177024.175818299" y="4954409.027439514" >
		</node>
		<node id="1476173592" x="176993.82708474743" y="4954463.444756203" >
		</node>
		<node id="1476173596" x="176967.97829143849" y="4954473.949176579" >
		</node>
		<node id="1476173598" x="177187.01659009844" y="4954478.026420618" >
		</node>
		<node id="1476173601" x="177162.45455415297" y="4954478.520949113" >
		</node>
		<node id="1476173611" x="176953.44262749352" y="4954495.658067544" >
		</node>
		<node id="1476173612" x="177207.41398429428" y="4954491.649617839" >
		</node>
		<node id="1476173613" x="177216.88612096524" y="4954509.427835671" >
		</node>
		<node id="1476173614" x="176945.95265423652" y="4954524.28605704" >
		</node>
		<node id="1476173617" x="176945.14875302924" y="4954548.213694442" >
		</node>
		<node id="1476173622" x="177219.45810387784" y="4954533.66522656" >
		</node>
		<node id="1476173623" x="177226.35792824836" y="4954533.074884393" >
		</node>
		<node id="1476173625" x="176956.19007603527" y="4954572.873178703" >
		</node>
		<node id="1476173627" x="176979.9199873432" y="4954585.437843405" >
		</node>
		<node id="1476173629" x="177215.82770273485" y="4954570.362715492" >
		</node>
		<node id="1476173630" x="177223.46630739357" y="4954564.84657267" >
		</node>
		<node id="1476173641" x="177010.9391678963" y="4954606.301533488" >
		</node>
		<node id="1476173643" x="177198.50905749033" y="4954604.90563401" >
		</node>
		<node id="1476173644" x="177150.56319562753" y="4954611.314852861" >
		</node>
		<node id="1476173646" x="177173.19892339665" y="4954615.527072515" >
		</node>
		<node id="1476173647" x="177003.25340874813" y="4954628.324299076" >
		</node>
		<node id="1476173648" x="177128.7482359592" y="4954617.941753188" >
		</node>
		<node id="1476173653" x="177130.9629082724" y="4954641.384085976" >
		</node>
		<node id="1476173655" x="177008.5528172666" y="4954653.215757787" >
		</node>
		<node id="1476173657" x="177196.0594706579" y="4954652.012133835" >
		</node>
		<node id="1476173659" x="177121.1732454577" y="4954660.594310462" >
		</node>
		<node id="1476173661" x="177026.16853314283" y="4954670.797446291" >
		</node>
		<node id="1476173663" x="177094.5383174115" y="4954674.745806058" >
		</node>
		<node id="1476173664" x="177055.17488339962" y="4954677.184707981" >
		</node>
		<node id="1476173671" x="177197.56833679712" y="4954673.741403428" >
		</node>
		<node id="1485574490" x="176517.59258394322" y="4953191.254458388" >
		</node>
		<node id="1515885388" x="175655.1558007339" y="4953577.669708895" >
		</node>
		<node id="1517781240" x="175918.58069735946" y="4953525.73123361" >
		</node>
		<node id="1517781242" x="175880.3432983107" y="4953606.732300082" >
		</node>
		<node id="1517781244" x="175873.88123566902" y="4953626.813072593" >
		</node>
		<node id="1517781246" x="175767.00277289958" y="4953649.679564443" >
		</node>
		<node id="1517781248" x="175855.49617065204" y="4953649.241388954" >
		</node>
		<node id="1517781250" x="175783.0229569216" y="4953658.796971575" >
		</node>
		<node id="1517781252" x="175842.70448128314" y="4953657.078330322" >
		</node>
		<node id="1517781255" x="175803.46414435003" y="4953665.108561936" >
		</node>
		<node id="1517781257" x="175818.6058488075" y="4953664.180552172" >
		</node>
		<node id="1524578322" x="179200.79861838918" y="4957820.442490756" >
		</node>
		<node id="1524733925" x="178567.88463470305" y="4956639.793536841" >
		</node>
		<node id="1524986587" x="175914.16402135597" y="4954217.3493090365" >
		</node>
		<node id="1532563432" x="179872.513611399" y="4954147.515582626" >
		</node>
		<node id="1631231228" x="177997.06285584345" y="4953878.12969661" >
		</node>
		<node id="1631231229" x="177988.56182188564" y="4953912.563744191" >
		</node>
		<node id="1631231232" x="177975.49544674653" y="4953891.367029305" >
		</node>
		<node id="1631231234" x="177987.7879819878" y="4953871.9110532915" >
		</node>
		<node id="1631231236" x="177975.6411879076" y="4953877.094401822" >
		</node>
		<node id="1631231239" x="178017.51828943985" y="4953980.006131645" >
		</node>
		<node id="1631231240" x="177999.49750853598" y="4953887.897014672" >
		</node>
		<node id="1631231241" x="178032.74827714614" y="4953973.388288022" >
		</node>
		<node id="1631231244" x="178062.10524840746" y="4954043.773019137" >
		</node>
		<node id="1631231257" x="178003.6813757667" y="4953903.412328488" >
		</node>
		<node id="1631231259" x="178048.0220257825" y="4954049.7990340255" >
		</node>
		<node id="1631231262" x="177980.42590468482" y="4953873.124934386" >
		</node>
		<node id="1642859385" x="178020.06582106772" y="4953986.304490592" >
		</node>
		<node id="1642859403" x="178005.64571068634" y="4953952.313115516" >
		</node>
		<node id="1642859406" x="177982.9182880717" y="4953903.468888146" >
		</node>
		<node id="1748027852" x="176999.9991014672" y="4954585.2450684095" >
		</node>
		<node id="1748027865" x="176967.846819925" y="4954580.630354231" >
		</node>
		<node id="1748027867" x="176658.10724415415" y="4954567.176330328" >
		</node>
		<node id="1748027868" x="176863.5908459762" y="4954423.98719527" >
		</node>
		<node id="1748027870" x="177003.43962353107" y="4954464.021261326" >
		</node>
		<node id="1762465055" x="177365.16633023415" y="4954168.64501338" >
		</node>
		<node id="1762465056" x="177365.7332834631" y="4954182.20283966" >
		</node>
		<node id="1762465057" x="177363.7864596196" y="4954194.438706569" >
		</node>
		<node id="1762465058" x="177360.19439954823" y="4954204.763494099" >
		</node>
		<node id="1785723418" x="176223.53688282717" y="4952933.720228119" >
		</node>
		<node id="1786899256" x="177343.02483477228" y="4953021.865760028" >
		</node>
		<node id="1786899257" x="177370.32705905044" y="4953050.9468025565" >
		</node>
		<node id="1786899260" x="177695.5349128006" y="4953372.084486807" >
		</node>
		<node id="1942501471" x="178691.21423876006" y="4952624.337787714" >
		</node>
		<node id="1942501475" x="178786.3383466513" y="4952656.6622579275" >
		</node>
		<node id="1942501482" x="178984.61692789925" y="4952731.973531086" >
		</node>
		<node id="1945691576" x="178479.21127696498" y="4952545.097195162" >
		</node>
		<node id="1958312108" x="179097.8786058285" y="4956155.269613988" >
		</node>
		<node id="1958312112" x="179092.72304401698" y="4956167.241335195" >
		</node>
		<node id="1958312114" x="179070.48176088824" y="4956193.61623757" >
		</node>
		<node id="1958312117" x="179065.47319422622" y="4956206.783356217" >
		</node>
		<node id="1958312120" x="179085.9207478201" y="4956242.669883367" >
		</node>
		<node id="1960083400" x="175961.3038913018" y="4954871.10832997" >
		</node>
		<node id="2021512074" x="176104.16323127318" y="4952677.972729843" >
		</node>
		<node id="2021512076" x="176073.56762242562" y="4952700.934996686" >
		</node>
		<node id="2021512079" x="176102.75481607823" y="4952707.398974673" >
		</node>
		<node id="2021512080" x="176217.0004923431" y="4952778.1165848905" >
		</node>
		<node id="2021886612" x="176659.91098233406" y="4952448.043884148" >
		</node>
		<node id="2021886655" x="176327.86952213442" y="4952637.525838634" >
		</node>
		<node id="2021886662" x="177662.93870826112" y="4952611.39998608" >
		</node>
		<node id="2021886663" x="176626.26449457876" y="4952671.275499705" >
		</node>
		<node id="2023217212" x="177808.22395562514" y="4952459.152186226" >
		</node>
		<node id="2023217231" x="177690.13708890614" y="4952563.291967419" >
		</node>
		<node id="2023217236" x="177729.87960241572" y="4952586.018067543" >
		</node>
		<node id="2023217239" x="177531.77125618618" y="4952603.521077984" >
		</node>
		<node id="2023217240" x="177720.24667848548" y="4952594.951476338" >
		</node>
		<node id="2023217246" x="177751.23068911047" y="4952649.6971336035" >
		</node>
		<node id="2023217247" x="177887.83977829217" y="4952676.975042895" >
		</node>
		<node id="2024369657" x="176101.29190923175" y="4952683.00573633" >
		</node>
		<node id="2024369659" x="176112.04333030048" y="4952690.061093498" >
		</node>
		<node id="2032810861" x="177892.7352056359" y="4953528.842734417" >
		</node>
		<node id="2032810907" x="178287.94084505324" y="4953948.160233373" >
		</node>
		<node id="2032811197" x="178087.13437525328" y="4954404.792089638" >
		</node>
		<node id="2032811396" x="178325.63385564712" y="4954817.086665064" >
		</node>
		<node id="2032811941" x="178565.524760705" y="4956634.844323735" >
		</node>
		<node id="2035506542" x="179047.27054560283" y="4953151.486312365" >
		</node>
		<node id="2035506543" x="179010.7099495352" y="4953169.051378265" >
		</node>
		<node id="2035506544" x="178992.89296462102" y="4953175.483538004" >
		</node>
		<node id="2035506545" x="178965.00587349816" y="4953182.550466275" >
		</node>
		<node id="2035506546" x="178903.77221208386" y="4953198.771573587" >
		</node>
		<node id="2035506547" x="178858.53425496176" y="4953211.090118999" >
		</node>
		<node id="2035506548" x="178832.76145971223" y="4953218.954412937" >
		</node>
		<node id="2035506550" x="178804.42828039918" y="4953227.592171121" >
		</node>
		<node id="2035506551" x="178762.36634519888" y="4953236.011624926" >
		</node>
		<node id="2035506553" x="178709.50193997717" y="4953248.711009769" >
		</node>
		<node id="2035506555" x="178652.96492367552" y="4953260.435636553" >
		</node>
		<node id="2035506556" x="178611.1473288131" y="4953264.979756001" >
		</node>
		<node id="2035506561" x="176639.1735753721" y="4953491.987600515" >
		</node>
		<node id="2035506562" x="176544.56761933654" y="4953503.679517522" >
		</node>
		<node id="2035506563" x="178331.75222619" y="4953423.171578013" >
		</node>
		<node id="2035506564" x="178311.8951327026" y="4953430.108369889" >
		</node>
		<node id="2035506568" x="176593.82213108393" y="4953522.413666863" >
		</node>
		<node id="2035506569" x="176555.84814241674" y="4953530.676369072" >
		</node>
		<node id="2035506570" x="176551.9725619321" y="4953532.162502652" >
		</node>
		<node id="2035506571" x="176571.9007921433" y="4953531.5865264395" >
		</node>
		<node id="2035506575" x="176585.7561633789" y="4953560.325226371" >
		</node>
		<node id="2035506578" x="176581.32712070394" y="4953568.84384861" >
		</node>
		<node id="2035506579" x="176563.25613007194" y="4953577.768036269" >
		</node>
		<node id="2035506581" x="176444.5792379704" y="4953586.960070593" >
		</node>
		<node id="2035506582" x="176512.66423635266" y="4953584.503231242" >
		</node>
		<node id="2035506583" x="176575.099811829" y="4953581.9183062725" >
		</node>
		<node id="2035506584" x="176573.16576945526" y="4953596.4479709985" >
		</node>
		<node id="2035506585" x="178403.86269915942" y="4953507.851631334" >
		</node>
		<node id="2035506587" x="176588.86241091992" y="4953698.850333667" >
		</node>
		<node id="2035506588" x="176582.29746221477" y="4953700.114931627" >
		</node>
		<node id="2035506589" x="176595.66121532995" y="4953727.296911225" >
		</node>
		<node id="2035506590" x="176589.02642552735" y="4953730.179776396" >
		</node>
		<node id="2035506591" x="178612.49264791777" y="4953642.4671482695" >
		</node>
		<node id="2035506593" x="178523.84234688152" y="4953657.987107166" >
		</node>
		<node id="2035506594" x="176605.99985736184" y="4953765.477365534" >
		</node>
		<node id="2035506595" x="176599.29214801796" y="4953766.90501904" >
		</node>
		<node id="2035506598" x="178613.86393397814" y="4953693.758012298" >
		</node>