<?xml version="1.0" encoding="utf-8"?>
<!DOCTYPE population SYSTEM "http://www.matsim.org/files/dtd/population_v6.dtd">

<population>



<!-- ====================================================================== -->

	<person id="0">
		<attributes>
			<attribute name="drivelogic" class="java.lang.String" >org.matsim.contrib.smartcity.agent.CLASSDriverLogicBasic</attribute>
		</attributes>
		<plan selected="yes">
			<activity type="h" link="4143" max_dur="08:56:05" >
			</activity>
			<leg mode="car">
			</leg>
			<activity type="w" link="4894" start_time="08:59:36" end_time="18:28:47" >
			</activity>
			<leg mode="car">
			</leg>
			<activity type="h" link="4143" >
			</activity>
		</plan>

	</person>

<!-- ====================================================================== -->

	<person id="1">
		<attributes>
			<attribute name="drivelogic" class="java.lang.String" >org.matsim.contrib.smartcity.agent.CLASSDriverLogicBasic</attribute>
		</attributes>
		<plan selected="yes">
			<activity type="h" link="2879" max_dur="10:04:55" >
			</activity>
			<leg mode="car">
			</leg>
			<activity type="w" link="2917" start_time="10:15:02" end_time="17:03:58" >
			</activity>
			<leg mode="car">
			</leg>
			<activity type="h" link="2879" >
			</activity>
		</plan>

	</person>

<!-- ====================================================================== -->

	<person id="10">
		<attributes>
			<attribute name="drivelogic" class="java.lang.String" >org.matsim.contrib.smartcity.agent.CLASSDriverLogicBasic</attribute>
		</attributes>
		<plan selected="yes">
			<activity type="h" link="3491" max_dur="07:34:36" >
			</activity>
			<leg mode="car">
			</leg>
			<activity type="w" link="3260" start_time="07:45:36" end_time="17:07:12" >
			</activity>
			<leg mode="car">
			</leg>
			<activity type="h" link="3491" >
			</activity>
		</plan>

	</person>

<!-- ====================================================================== -->

	<person id="100">
		<attributes>
			<attribute name="drivelogic" class="java.lang.String" >org.matsim.contrib.smartcity.agent.CLASSDriverLogicBasic</attribute>
		</attributes>
		<plan selected="yes">
			<activity type="h" link="220" max_dur="08:46:30" >
			</activity>
			<leg mode="car">
			</leg>
			<activity type="w" link="2472" start_time="08:48:55" end_time="19:00:33" >
			</activity>
			<leg mode="car">
			</leg>
			<activity type="h" link="220" >
			</activity>
		</plan>

	</person>

<!-- ====================================================================== -->

	<person id="1000">
		<attributes>
			<attribute name="drivelogic" class="java.lang.String" >org.matsim.contrib.smartcity.agent.CLASSDriverLogicBasic</attribute>
		</attributes>
		<plan selected="yes">
			<activity type="h" link="5414" max_dur="08:22:03" >
			</activity>
			<leg mode="car">
			</leg>
			<activity type="w" link="5189" start_time="08:27:13" end_time="17:04:53" >
			</activity>
			<leg mode="car">
			</leg>
			<activity type="h" link="5414" >
			</activity>
		</plan>

	</person>

<!-- ====================================================================== -->

	<person id="1001">
		<attributes>
			<attribute name="drivelogic" class="java.lang.String" >org.matsim.contrib.smartcity.agent.CLASSDriverLogicBasic</attribute>
		</attributes>
		<plan selected="yes">
			<activity type="h" link="4846" max_dur="09:03:42" >
			</activity>
			<leg mode="car">
			</leg>
			<activity type="w" link="3170" start_time="09:15:12" end_time="19:13:10" >
			</activity>
			<leg mode="car">
			</leg>
			<activity type="h" link="4846" >
			</activity>
		</plan>

	</person>

<!-- ====================================================================== -->

	<person id="1002">
		<attributes>
			<attribute name="drivelogic" class="java.lang.String" >org.matsim.contrib.smartcity.agent.CLASSDriverLogicBasic</attribute>
		</attributes>
		<plan selected="yes">
			<activity type="h" link="1544" max_dur="09:06:58" >
			</activity>
			<leg mode="car">
			</leg>
			<activity type="w" link="2579" start_time="09:17:42" end_time="19:08:44" >
			</activity>
			<leg mode="car">
			</leg>
			<activity type="h" link="1544" >
			</activity>
		</plan>

	</person>

<!-- ====================================================================== -->

	<person id="1003">
		<attributes>
			<attribute name="drivelogic" class="java.lang.String" >org.matsim.contrib.smartcity.agent.CLASSDriverLogicBasic</attribute>
		</attributes>
		<plan selected="yes">
			<activity type="h" link="1194" max_dur="09:27:44" >
			</activity>
			<leg mode="car">
			</leg>
			<activity type="w" link="1425" start_time="09:30:10" end_time="18:50:29" >
			</activity>
			<leg mode="car">
			</leg>
			<activity type="h" link="1194" >
			</activity>
		</plan>

	</person>

<!-- ====================================================================== -->

	<person id="1004">
		<attributes>
			<attribute name="drivelogic" class="java.lang.String" >org.matsim.contrib.smartcity.agent.CLASSDriverLogicBasic</attribute>
		</attributes>
		<plan selected="yes">
			<activity type="h" link="209" max_dur="07:49:18" >
			</activity>
			<leg mode="car">
			</leg>
			<activity type="w" link="487" start_time="07:51:40" end_time="18:20:25" >
			</activity>
			<leg mode="car">
			</leg>
			<activity type="h" link="209" >
			</activity>
		</plan>

	</person>

<!-- ====================================================================== -->

	<person id="1005">
		<attributes>
			<attribute name="drivelogic" class="java.lang.String" >org.matsim.contrib.smartcity.agent.CLASSDriverLogicBasic</attribute>
		</attributes>
		<plan selected="yes">
			<activity type="h" link="4966" max_dur="06:44:37" >
			</activity>
			<leg mode="car">
			</leg>
			<activity type="w" link="2595" start_time="06:56:07" end_time="17:53:36" >
			</activity>
			<leg mode="car">
			</leg>
			<activity type="h" link="4966" >
			</activity>
		</plan>

	</person>

<!-- ====================================================================== -->

	<person id="1006">
		<attributes>
			<attribute name="drivelogic" class="java.lang.String" >org.matsim.contrib.smartcity.agent.CLASSDriverLogicBasic</attribute>
		</attributes>
		<plan selected="yes">
			<activity type="h" link="3351" max_dur="08:09:08" >
			</activity>
			<leg mode="car">
			</leg>
			<activity type="w" link="1532" start_time="08:15:09" end_time="18:44:19" >
			</activity>
			<leg mode="car">
			</leg>
			<activity type="h" link="3351" >
			</activity>
		</plan>

	</person>

<!-- ====================================================================== -->

	<person id="1007">
		<attributes>
			<attribute name="drivelogic" class="java.lang.String" >org.matsim.contrib.smartcity.agent.CLASSDriverLogicBasic</attribute>
		</attributes>
		<plan selected="yes">
			<activity type="h" link="867" max_dur="08:34:47" >
			</activity>
			<leg mode="car">
			</leg>
			<activity type="w" link="3752" start_time="08:41:42" end_time="17:11:22" >
			</activity>
			<leg mode="car">
			</leg>
			<activity type="h" link="867" >
			</activity>
		</plan>

	</person>

<!-- ====================================================================== -->

	<person id="1008">
		<attributes>
			<attribute name="drivelogic" class="java.lang.String" >org.matsim.contrib.smartcity.agent.CLASSDriverLogicBasic</attribute>
		</attributes>
		<plan selected="yes">
			<activity type="h" link="689" max_dur="09:45:27" >
			</activity>
			<leg mode="car">
			</leg>
			<activity type="w" link="458" start_time="09:56:23" end_time="18:51:52" >
			</activity>
			<leg mode="car">
			</leg>
			<activity type="h" link="689" >
			</activity>
		</plan>

	</person>

<!-- ====================================================================== -->

	<person id="1009">
		<attributes>
			<attribute name="drivelogic" class="java.lang.String" >org.matsim.contrib.smartcity.agent.CLASSDriverLogicBasic</attribute>
		</attributes>
		<plan selected="yes">
			<activity type="h" link="2930" max_dur="08:22:45" >
			</activity>
			<leg mode="car">
			</leg>
			<activity type="w" link="4025" start_time="08:27:21" end_time="18:46:27" >
			</activity>
			<leg mode="car">
			</leg>
			<activity type="h" link="2930" >
			</activity>
		</plan>

	</person>

<!-- ====================================================================== -->

	<person id="101">
		<attributes>
			<attribute name="drivelogic" class="java.lang.String" >org.matsim.contrib.smartcity.agent.CLASSDriverLogicBasic</attribute>
		</attributes>
		<plan selected="yes">
			<activity type="h" link="1225" max_dur="08:57:02" >
			</activity>
			<leg mode="car">
			</leg>
			<activity type="w" link="3466" start_time="08:59:38" end_time="19:09:25" >
			</activity>
			<leg mode="car">
			</leg>
			<activity type="h" link="1225" >
			</activity>
		</plan>

	</person>

<!-- ====================================================================== -->

	<person id="1010">
		<attributes>
			<attribute name="drivelogic" class="java.lang.String" >org.matsim.contrib.smartcity.agent.CLASSDriverLogicBasic</attribute>
		</attributes>
		<plan selected="yes">
			<activity type="h" link="2993" max_dur="09:40:02" >
			</activity>
			<leg mode="car">
			</leg>
			<activity type="w" link="689" start_time="09:46:05" end_time="19:30:22" >
			</activity>
			<leg mode="car">
			</leg>
			<activity type="h" link="2993" >
			</activity>
		</plan>

	</person>

<!-- ====================================================================== -->

	<person id="1011">
		<attributes>
			<attribute name="drivelogic" class="java.lang.String" >org.matsim.contrib.smartcity.agent.CLASSDriverLogicBasic</attribute>
		</attributes>
		<plan selected="yes">
			<activity type="h" link="2304" max_dur="07:47:50" >
			</activity>
			<leg mode="car">
			</leg>
			<activity type="w" link="4115" start_time="08:17:52" end_time="17:05:18" >
			</activity>
			<leg mode="car">
			</leg>
			<activity type="h" link="2304" >
			</activity>
		</plan>

	</person>

<!-- ====================================================================== -->

	<person id="1012">
		<attributes>
			<attribute name="drivelogic" class="java.lang.String" >org.matsim.contrib.smartcity.agent.CLASSDriverLogicBasic</attribute>
		</attributes>
		<plan selected="yes">
			<activity type="h" link="4490" max_dur="09:50:09" >
			</activity>
			<leg mode="car">
			</leg>
			<activity type="w" link="34" start_time="09:59:16" end_time="16:56:20" >
			</activity>
			<leg mode="car">
			</leg>
			<activity type="h" link="4490" >
			</activity>
		</plan>

	</person>

<!-- ====================================================================== -->

	<person id="1013">
		<attributes>
			<attribute name="drivelogic" class="java.lang.String" >org.matsim.contrib.smartcity.agent.CLASSDriverLogicBasic</attribute>
		</attributes>
		<plan selected="yes">
			<activity type="h" link="3944" max_dur="11:10:03" >
			</activity>
			<leg mode="car">
			</leg>
			<activity type="w" link="116" start_time="11:17:27" end_time="19:27:59" >
			</activity>
			<leg mode="car">
			</leg>
			<activity type="h" link="3944" >
			</activity>
		</plan>

	</person>

<!-- ====================================================================== -->

	<person id="1014">
		<attributes>
			<attribute name="drivelogic" class="java.lang.String" >org.matsim.contrib.smartcity.agent.CLASSDriverLogicBasic</attribute>
		</attributes>
		<plan selected="yes">
			<activity type="h" link="2654" max_dur="08:32:43" >
			</activity>
			<leg mode="car">
			</leg>
			<activity type="w" link="2324" start_time="08:45:15" end_time="17:50:09" >
			</activity>
			<leg mode="car">
			</leg>
			<activity type="h" link="2654" >
			</activity>
		</plan>

	</person>

<!-- ====================================================================== -->

	<person id="1015">
		<attributes>
			<attribute name="drivelogic" class="java.lang.String" >org.matsim.contrib.smartcity.agent.CLASSDriverLogicBasic</attribute>
		</attributes>
		<plan selected="yes">
			<activity type="h" link="2658" max_dur="09:36:02" >
			</activity>
			<leg mode="car">
			</leg>
			<activity type="w" link="93" start_time="09:42:26" end_time="19:16:32" >
			</activity>
			<leg mode="car">
			</leg>
			<activity type="h" link="2658" >
			</activity>
		</plan>

	</person>

<!-- ====================================================================== -->

	<person id="1016">
		<attributes>
			<attribute name="drivelogic" class="java.lang.String" >org.matsim.contrib.smartcity.agent.CLASSDriverLogicBasic</attribute>
		</attributes>
		<plan selected="yes">
			<activity type="h" link="2979" max_dur="09:37:29" >
			</activity>
			<leg mode="car">
			</leg>
			<activity type="w" link="860" start_time="09:42:14" end_time="18:08:27" >
			</activity>
			<leg mode="car">
			</leg>
			<activity type="h" link="2979" >
			</activity>
		</plan>

	</person>

<!-- ====================================================================== -->

	<person id="1017">
		<attributes>
			<attribute name="drivelogic" class="java.lang.String" >org.matsim.contrib.smartcity.agent.CLASSDriverLogicBasic</attribute>
		</attributes>
		<plan selected="yes">
			<activity type="h" link="577" max_dur="08:21:49" >
			</activity>
			<leg mode="car">
			</leg>
			<activity type="w" link="2533" start_time="08:25:12" end_time="18:04:36" >
			</activity>
			<leg mode="car">
			</leg>
			<activity type="h" link="577" >
			</activity>
		</plan>

	</person>

<!-- ====================================================================== -->

	<person id="1018">
		<attributes>
			<attribute name="drivelogic" class="java.lang.String" >org.matsim.contrib.smartcity.agent.CLASSDriverLogicBasic</attribute>
		</attributes>
		<plan selected="yes">
			<activity type="h" link="4844" max_dur="09:26:51" >
			</activity>
			<leg mode="car">
			</leg>
			<activity type="w" link="3381" start_time="09:34:25" end_time="19:32:01" >
			</activity>
			<leg mode="car">
			</leg>
			<activity type="h" link="4844" >
			</activity>
		</plan>

	</person>

<!-- ====================================================================== -->

	<person id="1019">
		<attributes>
			<attribute name="drivelogic" class="java.lang.String" >org.matsim.contrib.smartcity.agent.CLASSDriverLogicBasic</attribute>
		</attributes>
		<plan selected="yes">
			<activity type="h" link="3028" max_dur="07:52:52" >
			</activity>
			<leg mode="car">
			</leg>
			<activity type="w" link="446" start_time="08:04:04" end_time="19:16:42" >
			</activity>
			<leg mode="car">
			</leg>
			<activity type="h" link="3028" >
			</activity>
		</plan>

	</person>

<!-- ====================================================================== -->

	<person id="102">
		<attributes>
			<attribute name="drivelogic" class="java.lang.String" >org.matsim.contrib.smartcity.agent.CLASSDriverLogicBasic</attribute>
		</attributes>
		<plan selected="yes">
			<activity type="h" link="2239" max_dur="07:46:21" >
			</activity>
			<leg mode="car">
			</leg>
			<activity type="w" link="552" start_time="08:02:01" end_time="19:24:24" >
			</activity>
			<leg mode="car">
			</leg>
			<activity type="h" link="2239" >
			</activity>
		</plan>

	</person>

<!-- ====================================================================== -->

	<person id="1020">
		<attributes>
			<attribute name="drivelogic" class="java.lang.String" >org.matsim.contrib.smartcity.agent.CLASSDriverLogicBasic</attribute>
		</attributes>
		<plan selected="yes">
			<activity type="h" link="1651" max_dur="09:07:25" >
			</activity>
			<leg mode="car">
			</leg>
			<activity type="w" link="1070" start_time="09:10:30" end_time="19:11:51" >
			</activity>
			<leg mode="car">
			</leg>
			<activity type="h" link="1651" >
			</activity>
		</plan>

	</person>

<!-- ====================================================================== -->

	<person id="1021">
		<attributes>
			<attribute name="drivelogic" class="java.lang.String" >org.matsim.contrib.smartcity.agent.CLASSDriverLogicBasic</attribute>
		</attributes>
		<plan selected="yes">
			<activity type="h" link="1843" max_dur="08:37:22" >
			</activity>
			<leg mode="car">
			</leg>
			<activity type="w" link="1828" start_time="08:44:00" end_time="18:18:16" >
			</activity>
			<leg mode="car">
			</leg>
			<activity type="h" link="1843" >
			</activity>
		</plan>

	</person>

<!-- ====================================================================== -->

	<person id="1022">
		<attributes>
			<attribute name="drivelogic" class="java.lang.String" >org.matsim.contrib.smartcity.agent.CLASSDriverLogicBasic</attribute>
		</attributes>
		<plan selected="yes">
			<activity type="h" link="2677" max_dur="08:18:10" >
			</activity>
			<leg mode="car">
			</leg>
			<activity type="w" link="2548" start_time="08:20:18" end_time="19:50:05" >
			</activity>
			<leg mode="car">
			</leg>
			<activity type="h" link="2677" >
			</activity>
		</plan>

	</person>

<!-- ====================================================================== -->

	<person id="1023">
		<attributes>
			<attribute name="drivelogic" class="java.lang.String" >org.matsim.contrib.smartcity.agent.CLASSDriverLogicBasic</attribute>
		</attributes>
		<plan selected="yes">
			<activity type="h" link="629" max_dur="08:53:03" >
			</activity>
			<leg mode="car">
			</leg>
			<activity type="w" link="4272" start_time="09:02:59" end_time="20:12:40" >
			</activity>
			<leg mode="car">
			</leg>
			<activity type="h" link="629" >
			</activity>
		</plan>

	</person>

<!-- ====================================================================== -->

	<person id="1024">
		<attributes>
			<attribute name="drivelogic" class="java.lang.String" >org.matsim.contrib.smartcity.agent.CLASSDriverLogicBasic</attribute>
		</attributes>
		<plan selected="yes">
			<activity type="h" link="795" max_dur="08:12:08" >
			</activity>
			<leg mode="car">
			</leg>
			<activity type="w" link="4746" start_time="08:23:15" end_time="19:18:44" >
			</activity>
			<leg mode="car">
			</leg>
			<activity type="h" link="795" >
			</activity>
		</plan>

	</person>

<!-- ====================================================================== -->

	<person id="1025">
		<attributes>
			<attribute name="drivelogic" class="java.lang.String" >org.matsim.contrib.smartcity.agent.CLASSDriverLogicBasic</attribute>
		</attributes>
		<plan selected="yes">
			<activity type="h" link="3547" max_dur="09:01:53" >
			</activity>
			<leg mode="car">
			</leg>
			<activity type="w" link="3127" start_time="09:18:07" end_time="16:50:29" >
			</activity>
			<leg mode="car">
			</leg>
			<activity type="h" link="3547" >
			</activity>
		</plan>

	</person>

<!-- ====================================================================== -->

	<person id="1026">
		<attributes>
			<attribute name="drivelogic" class="java.lang.String" >org.matsim.contrib.smartcity.agent.CLASSDriverLogicBasic</attribute>
		</attributes>
		<plan selected="yes">
			<activity type="h" link="3553" max_dur="07:34:59" >
			</activity>
			<leg mode="car">
			</leg>
			<activity type="w" link="977" start_time="07:51:49" end_time="17:51:14" >
			</activity>
			<leg mode="car">
			</leg>
			<activity type="h" link="3553" >
			</activity>
		</plan>

	</person>

<!-- ====================================================================== -->

	<person id="1027">
		<attributes>
			<attribute name="drivelogic" class="java.lang.String" >org.matsim.contrib.smartcity.agent.CLASSDriverLogicBasic</attribute>
		</attributes>
		<plan selected="yes">
			<activity type="h" link="3317" max_dur="09:32:38" >
			</activity>
			<leg mode="car">
			</leg>
			<activity type="w" link="2746" start_time="09:42:53" end_time="18:35:28" >
			</activity>
			<leg mode="car">
			</leg>
			<activity type="h" link="3317" >
			</activity>
		</plan>

	</person>

<!-- ====================================================================== -->

	<person id="1028">
		<attributes>
			<attribute name="drivelogic" class="java.lang.String" >org.matsim.contrib.smartcity.agent.CLASSDriverLogicBasic</attribute>
		</attributes>
		<plan selected="yes">
			<activity type="h" link="3802" max_dur="09:12:49" >
			</activity>
			<leg mode="car">
			</leg>
			<activity type="w" link="3320" start_time="09:24:39" end_time="16:44:32" >
			</activity>
			<leg mode="car">
			</leg>
			<activity type="h" link="3802" >
			</activity>
		</plan>

	</person>

<!-- ====================================================================== -->

	<person id="1029">
		<attributes>
			<attribute name="drivelogic" class="java.lang.String" >org.matsim.contrib.smartcity.agent.CLASSDriverLogicBasic</attribute>
		</attributes>
		<plan selected="yes">
			<activity type="h" link="1827" max_dur="09:48:13" >
			</activity>
			<leg mode="car">
			</leg>
			<activity type="w" link="1070" start_time="09:53:58" end_time="17:44:42" >
			</activity>
			<leg mode="car">
			</leg>
			<activity type="h" link="1827" >
			</activity>
		</plan>

	</person>

<!-- ====================================================================== -->

	<person id="103">
		<attributes>
			<attribute name="drivelogic" class="java.lang.String" >org.matsim.contrib.smartcity.agent.CLASSDriverLogicBasic</attribute>
		</attributes>
		<plan selected="yes">
			<activity type="h" link="2402" max_dur="09:43:15" >
			</activity>
			<leg mode="car">
			</leg>
			<activity type="w" link="1013" start_time="09:49:07" end_time="18:58:38" >
			</activity>
			<leg mode="car">
			</leg>
			<activity type="h" link="2402" >
			</activity>
		</plan>

	</person>

<!-- ====================================================================== -->

	<person id="1030">
		<attributes>
			<attribute name="drivelogic" class="java.lang.String" >org.matsim.contrib.smartcity.agent.CLASSDriverLogicBasic</attribute>
		</attributes>
		<plan selected="yes">
			<activity type="h" link="1610" max_dur="08:09:16" >
			</activity>
			<leg mode="car">
			</leg>
			<activity type="w" link="490" start_time="08:12:22" end_time="19:13:13" >
			</activity>
			<leg mode="car">
			</leg>
			<activity type="h" link="1610" >
			</activity>
		</plan>

	</person>

<!-- ====================================================================== -->

	<person id="1031">
		<attributes>
			<attribute name="drivelogic" class="java.lang.String" >org.matsim.contrib.smartcity.agent.CLASSDriverLogicBasic</attribute>
		</attributes>
		<plan selected="yes">
			<activity type="h" link="4270" max_dur="09:25:26" >
			</activity>
			<leg mode="car">
			</leg>
			<activity type="w" link="5006" start_time="09:32:23" end_time="18:18:22" >
			</activity>
			<leg mode="car">
			</leg>
			<activity type="h" link="4270" >
			</activity>
		</plan>

	</person>

<!-- ====================================================================== -->

	<person id="1032">
		<attributes>
			<attribute name="drivelogic" class="java.lang.String" >org.matsim.contrib.smartcity.agent.CLASSDriverLogicBasic</attribute>
		</attributes>
		<plan selected="yes">
			<activity type="h" link="2546" max_dur="09:44:52" >
			</activity>
			<leg mode="car">
			</leg>
			<activity type="w" link="3170" start_time="09:51:09" end_time="18:23:02" >
			</activity>
			<leg mode="car">
			</leg>
			<activity type="h" link="2546" >
			</activity>
		</plan>

	</person>

<!-- ====================================================================== -->

	<person id="1033">
		<attributes>
			<attribute name="drivelogic" class="java.lang.String" >org.matsim.contrib.smartcity.agent.CLASSDriverLogicBasic</attribute>
		</attributes>
		<plan selected="yes">
			<activity type="h" link="4520" max_dur="08:05:14" >
			</activity>
			<leg mode="car">
			</leg>
			<activity type="w" link="4604" start_time="08:16:14" end_time="18:37:55" >
			</activity>
			<leg mode="car">
			</leg>
			<activity type="h" link="4520" >
			</activity>
		</plan>

	</person>

<!-- ====================================================================== -->

	<person id="1034">
		<attributes>
			<attribute name="drivelogic" class="java.lang.String" >org.matsim.contrib.smartcity.agent.CLASSDriverLogicBasic</attribute>
		</attributes>
		<plan selected="yes">
			<activity type="h" link="102" max_dur="07:49:25" >
			</activity>
			<leg mode="car">
			</leg>
			<activity type="w" link="2234" start_time="08:01:22" end_time="18:02:03" >
			</activity>
			<leg mode="car">
			</leg>
			<activity type="h" link="102" >
			</activity>
		</plan>

	</person>

<!-- ====================================================================== -->

	<person id="1035">
		<attributes>
			<attribute name="drivelogic" class="java.lang.String" >org.matsim.contrib.smartcity.agent.CLASSDriverLogicBasic</attribute>
		</attributes>
		<plan selected="yes">
			<activity type="h" link="608" max_dur="08:27:48" >
			</activity>
			<leg mode="car">
			</leg>
			<activity type="w" link="5403" start_time="08:29:07" end_time="18:47:34" >
			</activity>
			<leg mode="car">
			</leg>
			<activity type="h" link="608" >
			</activity>
		</plan>

	</person>

<!-- ====================================================================== -->

	<person id="1036">
		<attributes>
			<attribute name="drivelogic" class="java.lang.String" >org.matsim.contrib.smartcity.agent.CLASSDriverLogicBasic</attribute>
		</attributes>
		<plan selected="yes">
			<activity type="h" link="4859" max_dur="08:54:52" >
			</activity>
			<leg mode="car">
			</leg>
			<activity type="w" link="4580" start_time="09:16:41" end_time="19:01:01" >
			</activity>
			<leg mode="car">
			</leg>
			<activity type="h" link="4859" >
			</activity>
		</plan>

	</person>

<!-- ====================================================================== -->

	<person id="1037">
		<attributes>
			<attribute name="drivelogic" class="java.lang.String" >org.matsim.contrib.smartcity.agent.CLASSDriverLogicBasic</attribute>
		</attributes>
		<plan selected="yes">
			<activity type="h" link="2413" max_dur="08:59:56" >
			</activity>
			<leg mode="car">
			</leg>
			<activity type="w" link="1578" start_time="09:01:34" end_time="18:08:15" >
			</activity>
			<leg mode="car">
			</leg>
			<activity type="h" link="2413" >
			</activity>
		</plan>

	</person>

<!-- ====================================================================== -->

	<person id="1038">
		<attributes>
			<attribute name="drivelogic" class="java.lang.String" >org.matsim.contrib.smartcity.agent.CLASSDriverLogicBasic</attribute>
		</attributes>
		<plan selected="yes">
			<activity type="h" link="4237" max_dur="07:53:30" >
			</activity>
			<leg mode="car">
			</leg>
			<activity type="w" link="4889" start_time="07:58:27" end_time="18:25:49" >
			</activity>
			<leg mode="car">
			</leg>
			<activity type="h" link="4237" >
			</activity>
		</plan>

	</person>

<!-- ====================================================================== -->

	<person id="1039">
		<attributes>
			<attribute name="drivelogic" class="java.lang.String" >org.matsim.contrib.smartcity.agent.CLASSDriverLogicBasic</attribute>
		</attributes>
		<plan selected="yes">
			<activity type="h" link="4335" max_dur="09:58:43" >
			</activity>
			<leg mode="car">
			</leg>
			<activity type="w" link="283" start_time="10:10:28" end_time="17:09:18" >
			</activity>
			<leg mode="car">
			</leg>
			<activity type="h" link="4335" >
			</activity>
		</plan>

	</person>

<!-- ====================================================================== -->

	<person id="104">
		<attributes>
			<attribute name="drivelogic" class="java.lang.String" >org.matsim.contrib.smartcity.agent.CLASSDriverLogicBasic</attribute>
		</attributes>
		<plan selected="yes">
			<activity type="h" link="5227" max_dur="08:03:21" >
			</activity>
			<leg mode="car">
			</leg>
			<activity type="w" link="3675" start_time="08:07:29" end_time="15:39:02" >
			</activity>
			<leg mode="car">
			</leg>
			<activity type="h" link="5227" >
			</activity>
		</plan>

	</person>

<!-- ====================================================================== -->

	<person id="1040">
		<attributes>
			<attribute name="drivelogic" class="java.lang.String" >org.matsim.contrib.smartcity.agent.CLASSDriverLogicBasic</attribute>
		</attributes>
		<plan selected="yes">
			<activity type="h" link="2664" max_dur="09:42:35" >
			</activity>
			<leg mode="car">
			</leg>
			<activity type="w" link="1966" start_time="09:46:20" end_time="18:30:12" >
			</activity>
			<leg mode="car">
			</leg>
			<activity type="h" link="2664" >
			</activity>
		</plan>

	</person>

<!-- ====================================================================== -->

	<person id="1041">
		<attributes>
			<attribute name="drivelogic" class="java.lang.String" >org.matsim.contrib.smartcity.agent.CLASSDriverLogicBasic</attribute>
		</attributes>
		<plan selected="yes">
			<activity type="h" link="2564" max_dur="07:49:14" >
			</activity>
			<leg mode="car">
			</leg>
			<activity type="w" link="3324" start_time="07:54:19" end_time="16:56:34" >
			</activity>
			<leg mode="car">
			</leg>
			<activity type="h" link="2564" >
			</activity>
		</plan>

	</person>

<!-- ====================================================================== -->

	<person id="1042">
		<attributes>
			<attribute name="drivelogic" class="java.lang.String" >org.matsim.contrib.smartcity.agent.CLASSDriverLogicBasic</attribute>
		</attributes>
		<plan selected="yes">
			<activity type="h" link="5355" max_dur="08:10:50" >
			</activity>
			<leg mode="car">
			</leg>
			<activity type="w" link="2370" start_time="08:18:32" end_time="17:39:25" >
			</activity>
			<leg mode="car">
			</leg>
			<activity type="h" link="5355" >
			</activity>
		</plan>

	</person>

<!-- ====================================================================== -->

	<person id="1043">
		<attributes>
			<attribute name="drivelogic" class="java.lang.String" >org.matsim.contrib.smartcity.agent.CLASSDriverLogicBasic</attribute>
		</attributes>
		<plan selected="yes">