<?xml version="1.0" encoding="UTF-8"?>
<!DOCTYPE network SYSTEM "http://www.matsim.org/files/dtd/network_v2.dtd">
<network>

<!-- ====================================================================== -->

	<nodes>
		<node id="10564569753" x="179858.33503345953" y="4952924.665306642" >
		</node>
		<node id="10564569754" x="179872.43213028152" y="4952924.611723342" >
		</node>
		<node id="10564569755" x="180022.2059618433" y="4952866.314288568" >
		</node>
		<node id="10564569756" x="180163.88156151026" y="4952796.284089214" >
		</node>
		<node id="10564569757" x="180265.64528948156" y="4952744.0809653" >
		</node>
		<node id="10564569758" x="180508.43872895348" y="4952991.147549287" >
		</node>
		<node id="10564569777" x="180342.208159915" y="4952689.820707263" >
		</node>
		<node id="10564569778" x="180345.631325179" y="4952696.187761539" >
		</node>
		<node id="1076629757" x="177374.17900291434" y="4953027.680005782" >
		</node>
		<node id="1076629758" x="177376.20216558885" y="4953034.282824192" >
		</node>
		<node id="1076629761" x="177375.83187828725" y="4953041.1835038485" >
		</node>
		<node id="1076629764" x="177359.71571630915" y="4953056.343948218" >
		</node>
		<node id="1076629766" x="177352.77471208794" y="4953056.301283075" >
		</node>
		<node id="1076629767" x="177346.2641129649" y="4953053.898500694" >
		</node>
		<node id="1076629769" x="177338.08209274284" y="4953044.775097473" >
		</node>
		<node id="1076629770" x="177336.41860304557" y="4953038.054074115" >
		</node>
		<node id="1076629771" x="177337.16260044574" y="4953031.1569711985" >
		</node>
		<node id="1076629776" x="177351.62955225748" y="4953017.34847118" >
		</node>
		<node id="1076629777" x="177358.5620136045" y="4953016.901574154" >
		</node>
		<node id="1076629780" x="177365.2248502092" y="4953018.851311688" >
		</node>
		<node id="1076629789" x="177655.46661274682" y="4952706.229889874" >
		</node>
		<node id="1076629791" x="177656.8253464513" y="4952692.854338512" >
		</node>
		<node id="1076629793" x="177661.55490294" y="4952688.241575751" >
		</node>
		<node id="1076629794" x="177671.95741400134" y="4952686.285372738" >
		</node>
		<node id="1076629795" x="177681.0361821368" y="4952691.722880048" >
		</node>
		<node id="1076629797" x="177684.1725092933" y="4952699.929446657" >
		</node>
		<node id="1076629799" x="177678.934455611" y="4952712.184703059" >
		</node>
		<node id="1076629800" x="177667.29086504597" y="4952715.550367186" >
		</node>
		<node id="1131728902" x="179085.83134970878" y="4954586.78025797" >
		</node>
		<node id="1131728912" x="180311.67065742245" y="4956306.923332612" >
		</node>
		<node id="1131728913" x="179097.0387229821" y="4954583.494244895" >
		</node>
		<node id="1131728995" x="179041.0495613495" y="4954525.044085035" >
		</node>
		<node id="1131729107" x="179662.66923179862" y="4955896.974905379" >
		</node>
		<node id="1131729116" x="181422.89994543215" y="4957313.579813294" >
		</node>
		<node id="1131729134" x="181233.3273719538" y="4957118.917685436" >
		</node>
		<node id="1131729182" x="179274.50830098125" y="4954434.130449017" >
		</node>
		<node id="1131729203" x="180380.9927157848" y="4956431.479663775" >
		</node>
		<node id="1131729216" x="182201.12764148542" y="4957630.347451808" >
		</node>
		<node id="1131729226" x="181372.08153839107" y="4957288.621136888" >
		</node>
		<node id="1131729260" x="179118.54863121163" y="4954575.185555359" >
		</node>
		<node id="1131729363" x="179069.69414279237" y="4954575.790369683" >
		</node>
		<node id="1131729380" x="179898.36014037096" y="4954130.954450363" >
		</node>
		<node id="1131729385" x="179516.5904179591" y="4955829.447274206" >
		</node>
		<node id="1131729423" x="179501.45446644782" y="4954371.478250684" >
		</node>
		<node id="1131729452" x="178837.69681294909" y="4954604.32249548" >
		</node>
		<node id="1131729483" x="181269.48414212232" y="4957154.121634344" >
		</node>
		<node id="1131729498" x="181162.188731361" y="4957076.291247904" >
		</node>
		<node id="1131729516" x="180578.12906003388" y="4956669.4762470415" >
		</node>
		<node id="1131729533" x="179306.88462592114" y="4954420.293181732" >
		</node>
		<node id="1131729559" x="182103.1097783011" y="4957618.925449448" >
		</node>
		<node id="1131729567" x="178881.99555375573" y="4955179.973366066" >
		</node>
		<node id="1131729584" x="181328.88513907482" y="4957249.644718082" >
		</node>
		<node id="1131729631" x="179167.22714573762" y="4954537.6631623665" >
		</node>
		<node id="1131729722" x="179077.6186335532" y="4954584.616557376" >
		</node>
		<node id="1131729791" x="179086.8499125298" y="4953793.384238339" >
		</node>
		<node id="1131729829" x="181356.66796156904" y="4957277.913701322" >
		</node>
		<node id="1131729832" x="179016.32776526833" y="4954520.550652749" >
		</node>
		<node id="1131729927" x="179428.77128207166" y="4954390.536171028" >
		</node>
		<node id="1131729956" x="181895.13116773253" y="4957524.572922317" >
		</node>
		<node id="1131729963" x="181276.01275600813" y="4957163.4310105555" >
		</node>
		<node id="1131730012" x="179222.9348701418" y="4954474.346004781" >
		</node>
		<node id="1131730015" x="180980.2961021458" y="4956972.077668265" >
		</node>
		<node id="1131730025" x="180586.1658943611" y="4956676.171365271" >
		</node>
		<node id="1131730029" x="180135.26227404253" y="4956178.059572552" >
		</node>
		<node id="122006267" x="179211.51944615872" y="4952863.0722008785" >
		</node>
		<node id="122006271" x="179138.17675786384" y="4952961.273772551" >
		</node>
		<node id="122006274" x="179107.33530243603" y="4952990.780944585" >
		</node>
		<node id="122006276" x="178983.3022488106" y="4953071.862239019" >
		</node>
		<node id="122006279" x="178576.92937132012" y="4953216.750709218" >
		</node>
		<node id="122006281" x="178534.1850015677" y="4953237.633429998" >
		</node>
		<node id="122006284" x="178432.6135737172" y="4953308.319840945" >
		</node>
		<node id="1359262854" x="177659.88479401957" y="4952660.696270098" >
		</node>
		<node id="1359262856" x="177642.36988114734" y="4952676.371156436" >
		</node>
		<node id="1419841622" x="177046.36034173652" y="4952809.562550069" >
		</node>
		<node id="1419841657" x="177183.8844041903" y="4952834.118273834" >
		</node>
		<node id="1419841705" x="177399.50730430405" y="4952993.9181541875" >
		</node>
		<node id="1433699948" x="179056.85372961254" y="4952735.685271977" >
		</node>
		<node id="1433699956" x="179064.02575422224" y="4952735.417631923" >
		</node>
		<node id="1433699957" x="179053.7326967126" y="4952736.6979740625" >
		</node>
		<node id="1433699958" x="179068.00961137284" y="4952736.411023406" >
		</node>
		<node id="1433699959" x="179054.96267750236" y="4952738.095596718" >
		</node>
		<node id="1433699960" x="179042.31288489676" y="4952743.769363402" >
		</node>
		<node id="1433699961" x="179083.03940070863" y="4952741.83277616" >
		</node>
		<node id="1433699963" x="179048.17693490314" y="4952745.170334027" >
		</node>
		<node id="1433699964" x="179032.90080583346" y="4952749.337781529" >
		</node>
		<node id="1433699966" x="179027.51874001365" y="4952751.554286302" >
		</node>
		<node id="1433699967" x="179045.95416392596" y="4952754.334376102" >
		</node>
		<node id="1433699968" x="179025.34530671954" y="4952759.312761705" >
		</node>
		<node id="1433699969" x="179050.0734798457" y="4952766.200782976" >
		</node>
		<node id="1433699970" x="179030.3975372619" y="4952770.119385861" >
		</node>
		<node id="1433699971" x="179062.00585573417" y="4952771.832230188" >
		</node>
		<node id="1433699972" x="179119.33597057732" y="4952770.049986322" >
		</node>
		<node id="1433699973" x="179064.38783943158" y="4952777.214882011" >
		</node>
		<node id="1433699974" x="179042.8393389188" y="4952780.079591962" >
		</node>
		<node id="1433699975" x="179129.38795742614" y="4952785.340781741" >
		</node>
		<node id="1433699976" x="179035.2146578593" y="4952794.735080188" >
		</node>
		<node id="1433699977" x="179041.98544822558" y="4952807.015247606" >
		</node>
		<node id="1433699978" x="179223.93100537034" y="4952810.5620237375" >
		</node>
		<node id="1433699979" x="179055.48967440816" y="4952822.35693692" >
		</node>
		<node id="1433699980" x="179199.9743385443" y="4952822.699620301" >
		</node>
		<node id="1433699981" x="179171.8006559763" y="4952824.835401847" >
		</node>
		<node id="1433699982" x="179101.18398284324" y="4952835.295843923" >
		</node>
		<node id="1433699983" x="179071.73101646552" y="4952835.201699272" >
		</node>
		<node id="1433699984" x="179087.72169468744" y="4952839.172525976" >
		</node>
		<node id="1433699985" x="179132.92951587745" y="4952839.296166574" >
		</node>
		<node id="1433699986" x="179249.63773086265" y="4952837.624834465" >
		</node>
		<node id="1433699994" x="179154.66536824772" y="4952854.4291326525" >
		</node>
		<node id="1433699995" x="179159.26617378736" y="4952854.2448982615" >
		</node>
		<node id="1433699996" x="179150.2835733447" y="4952855.181545198" >
		</node>
		<node id="1433699997" x="179142.75948020356" y="4952858.595792102" >
		</node>
		<node id="1433699998" x="179176.91589469003" y="4952857.376199187" >
		</node>
		<node id="1433699999" x="179137.90535215248" y="4952861.197985581" >
		</node>
		<node id="1433700000" x="179133.01961230522" y="4952865.082381219" >
		</node>
		<node id="1433700001" x="179123.32296209165" y="4952876.433217702" >
		</node>
		<node id="1433700002" x="179254.40348317515" y="4952868.579463509" >
		</node>
		<node id="1433700003" x="179120.38426587137" y="4952898.851126771" >
		</node>
		<node id="1433700004" x="179265.97188630974" y="4952895.198161463" >
		</node>
		<node id="1433700007" x="179243.43123012275" y="4952909.113787436" >
		</node>
		<node id="1433700008" x="179135.8250482118" y="4952920.377275948" >
		</node>
		<node id="1433700009" x="179153.43743785436" y="4952925.158462913" >
		</node>
		<node id="1433700010" x="179297.131863565" y="4952925.965535834" >
		</node>
		<node id="1433700011" x="179248.4150728468" y="4952925.269149652" >
		</node>
		<node id="1433700012" x="179184.54339020653" y="4952929.4135133475" >
		</node>
		<node id="1433700013" x="179257.6450113579" y="4952926.59204975" >
		</node>
		<node id="1433700014" x="179183.58648665744" y="4952933.82635492" >
		</node>
		<node id="1433700015" x="179128.67842287035" y="4952941.768361183" >
		</node>
		<node id="1433700016" x="179275.44037820987" y="4952937.455774265" >
		</node>
		<node id="1433700017" x="179257.86524625262" y="4952940.935224265" >
		</node>
		<node id="1433700018" x="179244.44482026977" y="4952946.769425741" >
		</node>
		<node id="1433700019" x="179183.7058088475" y="4952946.136696608" >
		</node>
		<node id="1433700020" x="179318.73185114103" y="4952947.174777344" >
		</node>
		<node id="1433700021" x="179185.77180583798" y="4952951.401459922" >
		</node>
		<node id="1433700022" x="179125.08941732429" y="4952958.9402052" >
		</node>
		<node id="1433700023" x="179236.27640187147" y="4952959.1242933525" >
		</node>
		<node id="1433700024" x="179193.1224683323" y="4952960.646226248" >
		</node>
		<node id="1433700025" x="179352.872708901" y="4952958.128316005" >
		</node>
		<node id="1433700026" x="179225.42458440643" y="4952965.944428613" >
		</node>
		<node id="1433700027" x="179209.25973013858" y="4952966.614482756" >
		</node>
		<node id="1433700028" x="179399.1377100536" y="4952959.715660887" >
		</node>
		<node id="1433700029" x="179208.85157696705" y="4952970.55460162" >
		</node>
		<node id="1433700030" x="179161.20392152504" y="4952975.050743516" >
		</node>
		<node id="1433700031" x="179139.59344600816" y="4952982.728977921" >
		</node>
		<node id="1433716824" x="178536.09830996004" y="4952576.650901436" >
		</node>
		<node id="1433716825" x="178596.7147797984" y="4952598.353276588" >
		</node>
		<node id="1433716826" x="178571.53321253805" y="4952669.675099545" >
		</node>
		<node id="1433716827" x="178574.2395478777" y="4952694.4848629" >
		</node>
		<node id="1433716828" x="178522.32351325115" y="4952698.229322303" >
		</node>
		<node id="1433716829" x="178530.54018293432" y="4952713.822363413" >
		</node>
		<node id="1433716831" x="178478.3751650959" y="4952717.033933378" >
		</node>
		<node id="1433716844" x="178984.44843806222" y="4952727.148932438" >
		</node>
		<node id="1433716845" x="178874.56333074666" y="4952736.926291934" >
		</node>
		<node id="1433716846" x="178888.33905008808" y="4952744.136089734" >
		</node>
		<node id="1433716849" x="178197.02576891828" y="4952871.885644961" >
		</node>
		<node id="1433716850" x="178787.50948853703" y="4953097.531461741" >
		</node>
		<node id="1433716851" x="178783.4410232983" y="4953114.471344314" >
		</node>
		<node id="1433716852" x="178773.49405383854" y="4953127.160449278" >
		</node>
		<node id="1444329952" x="180163.01901196118" y="4953287.277865366" >
		</node>
		<node id="1444864630" x="179530.90229489584" y="4952936.555024152" >
		</node>
		<node id="1444874088" x="179670.07622855128" y="4952932.1494469" >
		</node>
		<node id="1444874089" x="179682.13115830737" y="4952935.6266595945" >
		</node>
		<node id="1444874156" x="180073.25146928534" y="4952969.605778872" >
		</node>
		<node id="1444874164" x="180072.586234699" y="4952973.981695804" >
		</node>
		<node id="1444874182" x="180071.6353619952" y="4952978.5276766755" >
		</node>
		<node id="1444874183" x="180070.57818204002" y="4952980.929735159" >
		</node>
		<node id="1444874186" x="180069.5745152997" y="4952983.128697403" >
		</node>
		<node id="1444874187" x="180068.4721691584" y="4952984.619866908" >
		</node>
		<node id="1444874188" x="180067.1925274146" y="4952985.741213655" >
		</node>
		<node id="1444874189" x="179874.0957283512" y="4953002.512867479" >
		</node>
		<node id="1444874190" x="179859.6263821631" y="4953004.511420897" >
		</node>
		<node id="1444874192" x="180037.7523213235" y="4953000.140841687" >
		</node>
		<node id="1444874194" x="180086.98503698176" y="4952998.289693889" >
		</node>
		<node id="1444874195" x="180036.07373035286" y="4953001.070401182" >
		</node>
		<node id="1444874198" x="180034.69411773654" y="4953002.419427555" >
		</node>
		<node id="1444874199" x="180086.72169436805" y="4953001.153495359" >
		</node>
		<node id="1444874200" x="180034.03687374195" y="4953003.910802008" >
		</node>
		<node id="1444874201" x="179846.77361054695" y="4953013.30055464" >
		</node>
		<node id="1444874202" x="180034.0477202176" y="4953005.892423608" >
		</node>
		<node id="1444874203" x="180085.558373412" y="4953004.139871617" >
		</node>
		<node id="1444874204" x="180082.96803159168" y="4953005.916398774" >
		</node>
		<node id="1444874205" x="179827.9392230679" y="4953020.0703101065" >
		</node>
		<node id="1444874209" x="179832.86069835623" y="4953018.823868208" >
		</node>
		<node id="1444874210" x="179875.0741340209" y="4953019.66906357" >
		</node>
		<node id="1444874211" x="179897.23050752084" y="4953023.146561053" >
		</node>
		<node id="1444874213" x="180040.58750481007" y="4953021.091307116" >
		</node>
		<node id="1444874214" x="180041.66029539815" y="4953022.530293293" >
		</node>
		<node id="1444874215" x="180043.17199645488" y="4953023.524355917" >
		</node>
		<node id="1444874216" x="180046.7032015063" y="4953023.571954959" >
		</node>
		<node id="1444874219" x="180044.9710837258" y="4953023.902837898" >
		</node>
		<node id="1444874220" x="179881.1179484824" y="4953035.9169210745" >
		</node>
		<node id="1444874221" x="179891.53070250514" y="4953037.059513342" >
		</node>
		<node id="1447327555" x="178751.35626176867" y="4954027.179960326" >
		</node>
		<node id="1450908791" x="179472.81004815892" y="4952923.917336471" >
		</node>
		<node id="1450908792" x="179477.62822224153" y="4952931.150117911" >
		</node>
		<node id="1450908793" x="179482.83728538203" y="4952935.212046722" >
		</node>
		<node id="1450908798" x="179773.8590446746" y="4953016.172991136" >
		</node>
		<node id="1450908799" x="180047.04696428764" y="4953343.005592905" >
		</node>
		<node id="1450908800" x="179992.64276436693" y="4953754.330332358" >
		</node>
		<node id="1450908801" x="180005.6265674833" y="4954059.607703193" >
		</node>
		<node id="1450910938" x="179468.5130897297" y="4952924.776679203" >
		</node>
		<node id="1450910943" x="179468.05887276446" y="4952931.792540848" >
		</node>
		<node id="1450910945" x="179467.1196990399" y="4952935.92604497" >
		</node>
		<node id="1450910947" x="179465.94679337076" y="4952939.514369805" >
		</node>
		<node id="1450910948" x="179461.2256437284" y="4952943.0339823915" >
		</node>
		<node id="1450910949" x="179497.58077056415" y="4952937.6088244105" >
		</node>
		<node id="1450910952" x="179433.69547667756" y="4952953.310401378" >
		</node>
		<node id="1450910959" x="179366.9834957443" y="4952959.7878671335" >
		</node>
		<node id="1461486116" x="179552.79582860472" y="4952940.968720083" >
		</node>
		<node id="1476164942" x="178199.86404905206" y="4953371.9419070035" >
		</node>
		<node id="1476164945" x="178200.29433644016" y="4953373.55744336" >
		</node>
		<node id="1476164946" x="178200.23065574915" y="4953376.901435912" >
		</node>
		<node id="1476164947" x="178187.25528301793" y="4953378.083214919" >
		</node>
		<node id="1476164948" x="178199.72799291316" y="4953378.296244267" >
		</node>
		<node id="1476164949" x="178189.0392200445" y="4953379.430776684" >
		</node>
		<node id="1476164953" x="178190.95938159834" y="4953380.482006099" >
		</node>
		<node id="1476164955" x="178195.61027848237" y="4953381.307930807" >
		</node>
		<node id="1476164957" x="178412.23785609868" y="4953373.579172572" >
		</node>
		<node id="1476164959" x="178388.13512011716" y="4953379.6916994145" >
		</node>
		<node id="1476164961" x="178436.6043409687" y="4953379.135270431" >
		</node>
		<node id="1476164963" x="178458.64612814347" y="4953394.339746506" >
		</node>
		<node id="1476164965" x="178268.00504343846" y="4953482.954979272" >
		</node>
		<node id="1476164966" x="178249.85139566142" y="4953500.776038538" >
		</node>
		<node id="1476164968" x="178238.71604827273" y="4953503.4695573095" >
		</node>
		<node id="1476164970" x="178269.176083118" y="4953502.45147052" >
		</node>
		<node id="1476164972" x="178266.42760111787" y="4953505.9850403275" >
		</node>
		<node id="1476164987" x="178133.599406065" y="4953604.583833097" >
		</node>
		<node id="1476164995" x="178133.347943365" y="4953618.817143008" >
		</node>
		<node id="1476165000" x="177875.3327307626" y="4953691.396961214" >
		</node>
		<node id="1476165001" x="177880.93863174197" y="4953694.480128991" >
		</node>
		<node id="1476165002" x="178079.90697882598" y="4953701.58568978" >
		</node>
		<node id="1476165003" x="177880.7827074029" y="4953713.797942838" >
		</node>
		<node id="1476165004" x="178104.10843562614" y="4953717.2268362455" >
		</node>
		<node id="1476165006" x="177891.52340157446" y="4953727.560371677" >
		</node>
		<node id="1476165008" x="178086.92280049378" y="4953717.794919069" >
		</node>
		<node id="1476165015" x="177908.30617645703" y="4953733.248106662" >
		</node>
		<node id="1476165017" x="178109.1209385252" y="4953733.903543381" >
		</node>
		<node id="1476165018" x="178085.82633028738" y="4953734.99920521" >
		</node>
		<node id="1476165019" x="178106.2050700416" y="4953750.641808565" >
		</node>
		<node id="1476165020" x="177861.25907312962" y="4953769.718539972" >
		</node>
		<node id="1476165022" x="178062.5742909261" y="4953770.069028934" >
		</node>
		<node id="1476165023" x="178067.50841824757" y="4953779.60025641" >
		</node>
		<node id="1476165031" x="177840.0456584447" y="4953829.509915714" >
		</node>
		<node id="1476165033" x="177986.522603554" y="4953830.804051571" >
		</node>
		<node id="1476165035" x="177994.40078234067" y="4953839.609181508" >
		</node>
		<node id="1476165036" x="177835.3136128261" y="4953850.604227149" >
		</node>
		<node id="1476165042" x="177892.24820976862" y="4953907.90702414" >
		</node>
		<node id="1476165044" x="177882.79027008882" y="4953908.368203676" >
		</node>
		<node id="1476167527" x="177891.7378442703" y="4953917.420485763" >
		</node>
		<node id="1476167533" x="177902.8780190724" y="4953926.775323219" >
		</node>
		<node id="1476167541" x="177952.8952181129" y="4954079.849331298" >
		</node>
		<node id="1476167543" x="177959.5110871666" y="4954079.452180356" >
		</node>
		<node id="1476167545" x="177961.92663287005" y="4954080.4006392965" >
		</node>
		<node id="1476167547" x="177948.92959138047" y="4954082.552966641" >
		</node>
		<node id="1476167548" x="177964.71290236933" y="4954082.566697594" >
		</node>
		<node id="1476167549" x="177946.31137913524" y="4954087.572454076" >
		</node>
		<node id="1476167550" x="177967.0798550329" y="4954086.68024042" >
		</node>
		<node id="1476167551" x="177946.07240800856" y="4954089.78933745" >
		</node>
		<node id="1476167559" x="177967.5522389295" y="4954089.774766261" >
		</node>
		<node id="1476167561" x="177946.24930147734" y="4954091.740461206" >
		</node>
		<node id="1476167562" x="177967.39801110042" y="4954091.619925273" >
		</node>
		<node id="1476167563" x="177948.99087391334" y="4954097.149354396" >
		</node>
		<node id="1476167564" x="177965.3809148252" y="4954096.264171381" >
		</node>
		<node id="1476167565" x="177963.7042811241" y="4954098.018301971" >
		</node>
		<node id="1476167566" x="177950.89842960256" y="4954098.746796213" >
		</node>
		<node id="1476167567" x="177961.30826527887" y="4954099.529949041" >
		</node>
		<node id="1476167575" x="177953.72181387973" y="4954100.064651506" >
		</node>
		<node id="1476173560" x="177374.63618199417" y="4954148.092706196" >
		</node>
		<node id="1476173566" x="177394.32390786638" y="4954164.836775197" >
		</node>
		<node id="1532563432" x="179872.513611399" y="4954147.515582626" >
		</node>
		<node id="1631231228" x="177997.06285584345" y="4953878.12969661" >
		</node>
		<node id="1631231229" x="177988.56182188564" y="4953912.563744191" >
		</node>
		<node id="1631231232" x="177975.49544674653" y="4953891.367029305" >
		</node>
		<node id="1631231234" x="177987.7879819878" y="4953871.9110532915" >
		</node>
		<node id="1631231236" x="177975.6411879076" y="4953877.094401822" >
		</node>
		<node id="1631231239" x="178017.51828943985" y="4953980.006131645" >
		</node>
		<node id="1631231240" x="177999.49750853598" y="4953887.897014672" >
		</node>
		<node id="1631231241" x="178032.74827714614" y="4953973.388288022" >
		</node>
		<node id="1631231244" x="178062.10524840746" y="4954043.773019137" >
		</node>
		<node id="1631231257" x="178003.6813757667" y="4953903.412328488" >
		</node>
		<node id="1631231259" x="178048.0220257825" y="4954049.7990340255" >
		</node>
		<node id="1631231262" x="177980.42590468482" y="4953873.124934386" >
		</node>
		<node id="1642859385" x="178020.06582106772" y="4953986.304490592" >
		</node>
		<node id="1642859403" x="178005.64571068634" y="4953952.313115516" >
		</node>
		<node id="1642859406" x="177982.9182880717" y="4953903.468888146" >
		</node>
		<node id="1762465055" x="177365.16633023415" y="4954168.64501338" >
		</node>
		<node id="1762465056" x="177365.7332834631" y="4954182.20283966" >
		</node>
		<node id="1762465057" x="177363.7864596196" y="4954194.438706569" >
		</node>
		<node id="1762465058" x="177360.19439954823" y="4954204.763494099" >
		</node>
		<node id="1786899256" x="177343.02483477228" y="4953021.865760028" >
		</node>
		<node id="1786899257" x="177370.32705905044" y="4953050.9468025565" >
		</node>
		<node id="1786899260" x="177695.5349128006" y="4953372.084486807" >
		</node>
		<node id="1942501471" x="178691.21423876006" y="4952624.337787714" >
		</node>
		<node id="1942501475" x="178786.3383466513" y="4952656.6622579275" >
		</node>
		<node id="1942501482" x="178984.61692789925" y="4952731.973531086" >
		</node>
		<node id="1942501498" x="179103.19794996106" y="4952744.260067629" >
		</node>
		<node id="1942501517" x="179333.61661815934" y="4952863.9740554225" >
		</node>
		<node id="1942501520" x="179373.77254806063" y="4952883.203400689" >
		</node>
		<node id="1942501525" x="179446.43635241548" y="4952899.080658528" >
		</node>
		<node id="1942501527" x="179454.33590117283" y="4952907.062341885" >
		</node>
		<node id="1942501528" x="179465.5732683356" y="4952912.316974048" >
		</node>
		<node id="1942501552" x="179608.21047487576" y="4952981.802270275" >
		</node>
		<node id="1945691577" x="179404.47298041865" y="4952889.216850903" >
		</node>
		<node id="1949038968" x="179892.48624316993" y="4953547.0855631465" >
		</node>
		<node id="2021886662" x="177662.93870826112" y="4952611.39998608" >
		</node>
		<node id="2023217212" x="177808.22395562514" y="4952459.152186226" >
		</node>
		<node id="2023217236" x="177729.87960241572" y="4952586.018067543" >
		</node>
		<node id="2023217239" x="177531.77125618618" y="4952603.521077984" >
		</node>
		<node id="2023217240" x="177720.24667848548" y="4952594.951476338" >
		</node>
		<node id="2023217246" x="177751.23068911047" y="4952649.6971336035" >
		</node>
		<node id="2023217247" x="177887.83977829217" y="4952676.975042895" >
		</node>
		<node id="2032810861" x="177892.7352056359" y="4953528.842734417" >
		</node>
		<node id="2032810907" x="178287.94084505324" y="4953948.160233373" >
		</node>
		<node id="2035506535" x="179095.25234593678" y="4953013.753908188" >
		</node>
		<node id="2035506536" x="179022.18906767643" y="4953051.9987043915" >
		</node>
		<node id="2035506537" x="179026.37464341853" y="4953061.04441015" >
		</node>
		<node id="2035506538" x="178965.0739548019" y="4953080.096660789" >
		</node>
		<node id="2035506539" x="178968.1114437119" y="4953089.867618301" >
		</node>
		<node id="2035506540" x="178924.977341594" y="4953094.809167884" >
		</node>
		<node id="2035506541" x="178928.8920081592" y="4953103.678993843" >
		</node>
		<node id="2035506542" x="179047.27054560283" y="4953151.486312365" >
		</node>
		<node id="2035506543" x="179010.7099495352" y="4953169.051378265" >
		</node>
		<node id="2035506544" x="178992.89296462102" y="4953175.483538004" >
		</node>
		<node id="2035506545" x="178965.00587349816" y="4953182.550466275" >
		</node>
		<node id="2035506546" x="178903.77221208386" y="4953198.771573587" >
		</node>
		<node id="2035506547" x="178858.53425496176" y="4953211.090118999" >
		</node>
		<node id="2035506548" x="178832.76145971223" y="4953218.954412937" >
		</node>
		<node id="2035506550" x="178804.42828039918" y="4953227.592171121" >
		</node>
		<node id="2035506551" x="178762.36634519888" y="4953236.011624926" >
		</node>
		<node id="2035506552" x="178504.1298823523" y="4953254.933066286" >
		</node>
		<node id="2035506553" x="178709.50193997717" y="4953248.711009769" >
		</node>
		<node id="2035506554" x="178510.36471280083" y="4953263.620255144" >
		</node>
		<node id="2035506555" x="178652.96492367552" y="4953260.435636553" >
		</node>
		<node id="2035506556" x="178611.1473288131" y="4953264.979756001" >
		</node>
		<node id="2035506557" x="178460.2138026887" y="4953285.785760296" >
		</node>
		<node id="2035506558" x="178465.71208884852" y="4953294.3648514105" >
		</node>
		<node id="2035506563" x="178331.75222619" y="4953423.171578013" >
		</node>
		<node id="2035506564" x="178311.8951327026" y="4953430.108369889" >
		</node>
		<node id="2035506585" x="178403.86269915942" y="4953507.851631334" >
		</node>
		<node id="2035506591" x="178612.49264791777" y="4953642.4671482695" >
		</node>
		<node id="2035506593" x="178523.84234688152" y="4953657.987107166" >
		</node>
		<node id="2035506598" x="178613.86393397814" y="4953693.758012298" >
		</node>
		<node id="2035506603" x="177330.46327915118" y="4953785.813989881" >
		</node>
		<node id="2035506605" x="178517.27889659477" y="4953738.059154684" >
		</node>
		<node id="2035506606" x="177310.2443389548" y="4953804.3872472" >
		</node>
		<node id="2035506607" x="177332.26040110644" y="4953808.5533335535" >
		</node>
		<node id="2035506612" x="177179.31688991218" y="4953882.321706116" >
		</node>
		<node id="2035506616" x="177823.41468220367" y="4953866.4773110235" >
		</node>
		<node id="2035506624" x="177973.73142243578" y="4953884.049587281" >
		</node>
		<node id="2035506651" x="177029.60128423013" y="4953970.498660037" >
		</node>
		<node id="2035506653" x="177017.36444096547" y="4953977.837708155" >
		</node>
		<node id="2035506656" x="177001.09996505373" y="4953987.27163967" >
		</node>
		<node id="2035506697" x="178693.30270759529" y="4953999.547943246" >
		</node>
		<node id="2035506709" x="177635.6339196143" y="4954077.579819812" >
		</node>
		<node id="2035506710" x="177941.16548156622" y="4954063.296537288" >
		</node>
		<node id="2035506712" x="177980.6566011494" y="4954078.630276308" >
		</node>
		<node id="2035506716" x="178599.7647997631" y="4954050.845812404" >
		</node>
		<node id="2035506720" x="177964.87074325944" y="4954119.1520848535" >
		</node>
		<node id="2035506723" x="177158.00876979256" y="4954188.410090824" >
		</node>
		<node id="2035506724" x="177683.5245183888" y="4954189.888894577" >
		</node>
		<node id="2035506725" x="177697.18628984666" y="4954198.816676405" >
		</node>
		<node id="2035506727" x="177375.16940393316" y="4954215.150608151" >
		</node>
		<node id="2035506735" x="178023.2950392015" y="4954257.14037442" >
		</node>
		<node id="2035506778" x="179031.01480972895" y="4954517.726088871" >
		</node>
		<node id="2035506782" x="179134.7810430416" y="4954565.892303158" >
		</node>
		<node id="2035506785" x="178846.26954035205" y="4954601.746316249" >
		</node>
		<node id="2036365615" x="177566.01825842436" y="4952586.887307672" >
		</node>
		<node id="2036366404" x="178556.62798040372" y="4954286.963114699" >
		</node>
		<node id="2036822385" x="177518.2542799957" y="4952614.575471063" >
		</node>
		<node id="2036822398" x="177711.37785185338" y="4952778.962228603" >
		</node>
		<node id="2036822401" x="177101.52971003612" y="4952823.494686204" >
		</node>