<?xml version="1.0" encoding="UTF-8"?>
<!DOCTYPE facilities SYSTEM "http://www.matsim.org/files/dtd/facilities_v1.dtd">
<facilities>

<!-- ====================================================================== -->

	<facility id="10289044201" x="10.9339471" y="44.6555263">
		<activity type="cafe">
		</activity>

	</facility>

<!-- ====================================================================== -->

	<facility id="10289047254" x="10.9310689" y="44.658225">
		<activity type="bicycle_parking">
		</activity>

	</facility>

<!-- ====================================================================== -->

	<facility id="120726194" x="10.9334373" y="44.6520469">
		<activity type="car interaction">
			<capacity value="12.0" />
		</activity>

		<attributes>
			<attribute name="links" class="java.lang.String" >120726194;191785972</attribute>
		</attributes>
	</facility>

<!-- ====================================================================== -->

	<facility id="131238197" x="10.9638817" y="44.6620342">
		<activity type="car interaction">
			<capacity value="8.0" />
		</activity>

		<attributes>
			<attribute name="links" class="java.lang.String" >131238197</attribute>
		</attributes>
	</facility>

<!-- ====================================================================== -->

	<facility id="131239064" x="10.9616172" y="44.6586295">
		<activity type="bank">
		</activity>

	</facility>

<!-- ====================================================================== -->

	<facility id="131947134" x="10.9622512" y="44.6578914">
		<activity type="bank">
		</activity>

	</facility>

<!-- ====================================================================== -->

	<facility id="1359255737" x="10.9312638" y="44.6540972">
		<activity type="telephone">
		</activity>

	</facility>

<!-- ====================================================================== -->

	<facility id="1444329945" x="10.9633641" y="44.6598667">
		<activity type="bar">
		</activity>

	</facility>

<!-- ====================================================================== -->

	<facility id="1444329959" x="10.966755" y="44.6618281">
		<activity type="drinking_water">
		</activity>

	</facility>

<!-- ====================================================================== -->

	<facility id="1444329967" x="10.9663989" y="44.6620883">
		<activity type="shelter">
		</activity>

	</facility>

<!-- ====================================================================== -->

	<facility id="1444847162" x="10.9442332" y="44.6539964">
		<activity type="fast_food">
		</activity>

	</facility>

<!-- ====================================================================== -->

	<facility id="1450906237" x="10.9614635" y="44.6576509">
		<activity type="bar">
		</activity>

	</facility>

<!-- ====================================================================== -->

	<facility id="167115792" x="10.964364" y="44.6618937">
		<activity type="place_of_worship">
		</activity>

	</facility>

<!-- ====================================================================== -->

	<facility id="167116305" x="10.9427441" y="44.6526292">
		<activity type="pharmacy">
		</activity>

	</facility>

<!-- ====================================================================== -->

	<facility id="167120999" x="10.9358861" y="44.6538936">
		<activity type="nightclub">
		</activity>

	</facility>

<!-- ====================================================================== -->

	<facility id="167121828" x="10.9353627" y="44.6550744">
		<activity type="bank">
		</activity>

	</facility>

<!-- ====================================================================== -->

	<facility id="167133654" x="10.9711238" y="44.6538056">
		<activity type="restaurant">
		</activity>

	</facility>

<!-- ====================================================================== -->

	<facility id="167136466" x="10.9441717" y="44.6526878">
		<activity type="place_of_worship">
		</activity>

	</facility>

<!-- ====================================================================== -->

	<facility id="167165107" x="10.9278103" y="44.6634475">
		<activity type="childcare">
		</activity>

	</facility>

<!-- ====================================================================== -->

	<facility id="167165153" x="10.9269862" y="44.6522667">
		<activity type="place_of_worship">
		</activity>

	</facility>

<!-- ====================================================================== -->

	<facility id="167165937" x="10.9268375" y="44.6624018">
		<activity type="place_of_worship">
		</activity>

	</facility>

<!-- ====================================================================== -->

	<facility id="167278394" x="10.9268098" y="44.656601">
		<activity type="police">
		</activity>

	</facility>

<!-- ====================================================================== -->

	<facility id="167278783" x="10.9379" y="44.6560176">
		<activity type="place_of_worship">
		</activity>

	</facility>

<!-- ====================================================================== -->

	<facility id="167278847" x="10.9323041" y="44.6534022">
		<activity type="car interaction">
			<capacity value="116.0" />
		</activity>

		<attributes>
			<attribute name="links" class="java.lang.String" >167278499;167278847;650097688</attribute>
		</attributes>
	</facility>

<!-- ====================================================================== -->

	<facility id="167278988" x="10.9399932" y="44.6597645">
		<activity type="restaurant">
		</activity>

	</facility>

<!-- ====================================================================== -->

	<facility id="167305597" x="10.9336403" y="44.6514983">
		<activity type="place_of_worship">
		</activity>

	</facility>

<!-- ====================================================================== -->

	<facility id="1755033773" x="10.9343372" y="44.655332">
		<activity type="bicycle_parking">
		</activity>

	</facility>

<!-- ====================================================================== -->

	<facility id="1785268255" x="10.9358049" y="44.654884">
		<activity type="restaurant">
		</activity>

	</facility>

<!-- ====================================================================== -->

	<facility id="191785974" x="10.933259" y="44.6517737">
		<activity type="car interaction">
			<capacity value="12.0" />
		</activity>

		<attributes>
			<attribute name="links" class="java.lang.String" >191785973;191785974;321049999;321050003</attribute>
		</attributes>
	</facility>

<!-- ====================================================================== -->

	<facility id="193672368" x="10.9481917" y="44.6556869">
		<activity type="car interaction">
			<capacity value="20.0" />
		</activity>

		<attributes>
			<attribute name="links" class="java.lang.String" >167132024;193672363;193672368</attribute>
		</attributes>
	</facility>

<!-- ====================================================================== -->

	<facility id="193672369" x="10.948902" y="44.6558899">
		<activity type="car interaction">
			<capacity value="45.0" />
		</activity>

		<attributes>
			<attribute name="links" class="java.lang.String" >33787873;193672345;193672346;193672357;193672369;1031019666</attribute>
		</attributes>
	</facility>

<!-- ====================================================================== -->

	<facility id="193672373" x="10.9473415" y="44.6573183">
		<activity type="car interaction">
			<capacity value="19.0" />
		</activity>

		<attributes>
			<attribute name="links" class="java.lang.String" >193672350;193672353;193672354;193672373</attribute>
		</attributes>
	</facility>

<!-- ====================================================================== -->

	<facility id="193672374" x="10.9552149" y="44.6572064">
		<activity type="car interaction">
			<capacity value="5.0" />
		</activity>

		<attributes>
			<attribute name="links" class="java.lang.String" >193672374</attribute>
		</attributes>
	</facility>

<!-- ====================================================================== -->

	<facility id="193672377" x="10.9485832" y="44.6578526">
		<activity type="car interaction">
			<capacity value="36.0" />
		</activity>

		<attributes>
			<attribute name="links" class="java.lang.String" >32056861;193672377</attribute>
		</attributes>
	</facility>

<!-- ====================================================================== -->

	<facility id="193672379" x="10.948351" y="44.6573203">
		<activity type="car interaction">
			<capacity value="33.0" />
		</activity>

		<attributes>
			<attribute name="links" class="java.lang.String" >32056860;193672379</attribute>
		</attributes>
	</facility>

<!-- ====================================================================== -->

	<facility id="193672380" x="10.9475955" y="44.658006">
		<activity type="car interaction">
			<capacity value="13.0" />
		</activity>

		<attributes>
			<attribute name="links" class="java.lang.String" >193672380</attribute>
		</attributes>
	</facility>

<!-- ====================================================================== -->

	<facility id="193672381" x="10.9404932" y="44.6557125">
		<activity type="car interaction">
			<capacity value="34.0" />
		</activity>

		<attributes>
			<attribute name="links" class="java.lang.String" >32049284;32049422;193672344;193672347;193672362;193672381;490523256</attribute>
		</attributes>
	</facility>

<!-- ====================================================================== -->

	<facility id="193672382" x="10.9434154" y="44.6544569">
		<activity type="car interaction">
			<capacity value="10.0" />
		</activity>

		<attributes>
			<attribute name="links" class="java.lang.String" >33787639;193672382</attribute>
		</attributes>
	</facility>

<!-- ====================================================================== -->

	<facility id="193672383" x="10.9562169" y="44.6568202">
		<activity type="car interaction">
			<capacity value="22.0" />
		</activity>

		<attributes>
			<attribute name="links" class="java.lang.String" >193672342;193672355;193672383</attribute>
		</attributes>
	</facility>

<!-- ====================================================================== -->

	<facility id="193672384" x="10.94775" y="44.6593847">
		<activity type="car interaction">
			<capacity value="17.0" />
		</activity>

		<attributes>
			<attribute name="links" class="java.lang.String" >193672378;193672384</attribute>
		</attributes>
	</facility>

<!-- ====================================================================== -->

	<facility id="193672385" x="10.9463353" y="44.6568204">
		<activity type="car interaction">
			<capacity value="41.0" />
		</activity>

		<attributes>
			<attribute name="links" class="java.lang.String" >33787714;130070478;193672385</attribute>
		</attributes>
	</facility>

<!-- ====================================================================== -->

	<facility id="193672387" x="10.9479695" y="44.6563931">
		<activity type="car interaction">
			<capacity value="31.0" />
		</activity>

		<attributes>
			<attribute name="links" class="java.lang.String" >193672360;193672387</attribute>
		</attributes>
	</facility>

<!-- ====================================================================== -->

	<facility id="193672388" x="10.9558224" y="44.657049">
		<activity type="car interaction">
			<capacity value="20.0" />
		</activity>

		<attributes>
			<attribute name="links" class="java.lang.String" >193672356;193672358;193672371;193672388</attribute>
		</attributes>
	</facility>

<!-- ====================================================================== -->

	<facility id="193672389" x="10.9499021" y="44.6564672">
		<activity type="car interaction">
			<capacity value="43.0" />
		</activity>

		<attributes>
			<attribute name="links" class="java.lang.String" >32056851;33787916;33787917;193672389;454086617</attribute>
		</attributes>
	</facility>

<!-- ====================================================================== -->

	<facility id="194525204" x="10.9593181" y="44.6515932">
		<activity type="fuel">
		</activity>

	</facility>

<!-- ====================================================================== -->

	<facility id="194525250" x="10.9572049" y="44.6528975">
		<activity type="car interaction">
			<capacity value="119.0" />
		</activity>

		<attributes>
			<attribute name="links" class="java.lang.String" >194525206;194525207;194525208;194525226;194525231;194525233;194525250</attribute>
		</attributes>
	</facility>

<!-- ====================================================================== -->

	<facility id="194525261" x="10.9491373" y="44.6516697">
		<activity type="car interaction">
			<capacity value="31.0" />
		</activity>

		<attributes>
			<attribute name="links" class="java.lang.String" >194525225;194525261</attribute>
		</attributes>
	</facility>

<!-- ====================================================================== -->

	<facility id="194525269" x="10.9504728" y="44.651457">
		<activity type="car interaction">
			<capacity value="15.0" />
		</activity>

		<attributes>
			<attribute name="links" class="java.lang.String" >194525269</attribute>
		</attributes>
	</facility>

<!-- ====================================================================== -->

	<facility id="194525272" x="10.9563269" y="44.6537627">
		<activity type="car interaction">
			<capacity value="41.0" />
		</activity>

		<attributes>
			<attribute name="links" class="java.lang.String" >194525243;194525272</attribute>
		</attributes>
	</facility>

<!-- ====================================================================== -->

	<facility id="2013433801" x="10.9333202" y="44.6515854">
		<activity type="bicycle_rental">
		</activity>

	</facility>

<!-- ====================================================================== -->

	<facility id="2013433805" x="10.9302069" y="44.6536446">
		<activity type="bicycle_rental">
		</activity>

	</facility>

<!-- ====================================================================== -->

	<facility id="2013474816" x="10.9293872" y="44.655704">
		<activity type="bicycle_rental">
		</activity>

	</facility>

<!-- ====================================================================== -->

	<facility id="2013581294" x="10.9253899" y="44.6516379">
		<activity type="bicycle_rental">
		</activity>

	</facility>

<!-- ====================================================================== -->

	<facility id="2019953921" x="10.9285198" y="44.6511381">
		<activity type="bicycle_rental">
		</activity>

	</facility>

<!-- ====================================================================== -->

	<facility id="2021886481" x="10.9246792" y="44.6506018">
		<activity type="parking_entrance">
		</activity>

	</facility>

<!-- ====================================================================== -->

	<facility id="2090827902" x="10.9491026" y="44.6559896">
		<activity type="cafe">
		</activity>

	</facility>

<!-- ====================================================================== -->

	<facility id="2228098" x="10.9375694" y="44.650766">
		<activity type="bank">
		</activity>

	</facility>

<!-- ====================================================================== -->

	<facility id="2228149" x="10.9339903" y="44.6527881">
		<activity type="place_of_worship">
		</activity>

	</facility>

<!-- ====================================================================== -->

	<facility id="227724044" x="10.9570484" y="44.6541905">
		<activity type="fuel">
		</activity>

	</facility>

<!-- ====================================================================== -->

	<facility id="228257833" x="10.9465001" y="44.6546107">
		<activity type="fuel">
		</activity>

	</facility>

<!-- ====================================================================== -->

	<facility id="229143190" x="10.9582041" y="44.6581127">
		<activity type="fuel">
		</activity>

	</facility>

<!-- ====================================================================== -->

	<facility id="2401540733" x="10.9298882" y="44.6563763">
		<activity type="charging_station">
		</activity>

	</facility>

<!-- ====================================================================== -->

	<facility id="268696881" x="10.9369728" y="44.6523621">
		<activity type="car interaction">
			<capacity value="41.0" />
		</activity>

		<attributes>
			<attribute name="links" class="java.lang.String" >268696865;268696873;268696878;268696881</attribute>
		</attributes>
	</facility>

<!-- ====================================================================== -->

	<facility id="2919314608" x="10.9464303" y="44.6522375">
		<activity type="post_office">
		</activity>

	</facility>

<!-- ====================================================================== -->

	<facility id="306212337" x="10.9347824" y="44.6530126">
		<activity type="community_centre">
		</activity>

	</facility>

<!-- ====================================================================== -->

	<facility id="306563388" x="10.9348712" y="44.655023">
		<activity type="car interaction">
			<capacity value="14.0" />
		</activity>

		<attributes>
			<attribute name="links" class="java.lang.String" >306563388;622683998</attribute>
		</attributes>
	</facility>

<!-- ====================================================================== -->

	<facility id="32049496" x="10.9223258" y="44.6563269">
		<activity type="car interaction">
			<capacity value="100.0" />
		</activity>

		<attributes>
			<attribute name="links" class="java.lang.String" >32049496;193118817</attribute>
		</attributes>
	</facility>

<!-- ====================================================================== -->

	<facility id="32057324" x="10.9312993" y="44.6536315">
		<activity type="car interaction">
			<capacity value="97.0" />
		</activity>

		<attributes>
			<attribute name="links" class="java.lang.String" >23683655;28140737;28140740;32057324;32874719;96109018;191605130;200445699;455159011;650097681;692702904</attribute>
		</attributes>
	</facility>

<!-- ====================================================================== -->

	<facility id="321892061" x="10.9300321" y="44.6540862">
		<activity type="taxi">
		</activity>

	</facility>

<!-- ====================================================================== -->

	<facility id="321892062" x="10.9301971" y="44.6537484">
		<activity type="bicycle_parking">
		</activity>

	</facility>

<!-- ====================================================================== -->

	<facility id="323333452" x="10.9396239" y="44.6511926">
		<activity type="car interaction">
			<capacity value="95.0" />
		</activity>

		<attributes>
			<attribute name="links" class="java.lang.String" >28687250;28687251;28687286;191742017;323333452;607740263;607740861;690848177</attribute>
		</attributes>
	</facility>

<!-- ====================================================================== -->

	<facility id="323333456" x="10.9402166" y="44.6506422">
		<activity type="car interaction">
			<capacity value="68.0" />
		</activity>

		<attributes>
			<attribute name="links" class="java.lang.String" >323333456</attribute>
		</attributes>
	</facility>

<!-- ====================================================================== -->

	<facility id="32875046" x="10.9286414" y="44.6559109">
		<activity type="car interaction">
			<capacity value="66.0" />
		</activity>

		<attributes>
			<attribute name="links" class="java.lang.String" >32875046;32875134;190655401;190655417;365182715;397924980;690163981;690163983;690163986;691042241;691042488</attribute>
		</attributes>
	</facility>

<!-- ====================================================================== -->

	<facility id="3379581771" x="10.9290101" y="44.6527575">
		<activity type="pharmacy">
		</activity>

	</facility>

<!-- ====================================================================== -->

	<facility id="3379581776" x="10.9339999" y="44.6524674">
		<activity type="restaurant">
		</activity>

	</facility>

<!-- ====================================================================== -->

	<facility id="3410716173" x="10.9323724" y="44.6574404">
		<activity type="social_facility">
		</activity>

	</facility>

<!-- ====================================================================== -->

	<facility id="3410716174" x="10.9319821" y="44.6576235">
		<activity type="library">
		</activity>

	</facility>

<!-- ====================================================================== -->

	<facility id="35978070" x="10.9302788" y="44.6575675">
		<activity type="car interaction">
			<capacity value="58.0" />
		</activity>

		<attributes>
			<attribute name="links" class="java.lang.String" >35978058;35978060;35978064;35978065;35978068;35978069;35978070;193166684;209730256;473994205;976186501;976186502</attribute>
		</attributes>
	</facility>

<!-- ====================================================================== -->

	<facility id="35979711" x="10.9280483" y="44.6605206">
		<activity type="car interaction">
			<capacity value="29.0" />
		</activity>

		<attributes>
			<attribute name="links" class="java.lang.String" >35979709;35979710;35979711</attribute>
		</attributes>
	</facility>

<!-- ====================================================================== -->

	<facility id="36239004" x="10.9332807" y="44.6628058">
		<activity type="car interaction">
			<capacity value="82.0" />
		</activity>

		<attributes>
			<attribute name="links" class="java.lang.String" >32056762;36239001;36239002;36239003;36239004;209730243;664864412</attribute>
		</attributes>
	</facility>

<!-- ====================================================================== -->

	<facility id="375832987" x="10.9262202" y="44.6557808">
		<activity type="car interaction">
			<capacity value="13.0" />
		</activity>

		<attributes>
			<attribute name="links" class="java.lang.String" >375832987</attribute>
		</attributes>
	</facility>

<!-- ====================================================================== -->

	<facility id="375832988" x="10.9280354" y="44.6564794">
		<activity type="car interaction">
			<capacity value="145.0" />
		</activity>

		<attributes>
			<attribute name="links" class="java.lang.String" >193166669;375832988;375834630;479907206;479907207;690163995</attribute>
		</attributes>
	</facility>

<!-- ====================================================================== -->

	<facility id="375832989" x="10.9244493" y="44.6557362">
		<activity type="car interaction">
			<capacity value="27.0" />
		</activity>

		<attributes>
			<attribute name="links" class="java.lang.String" >375832989</attribute>
		</attributes>
	</facility>

<!-- ====================================================================== -->

	<facility id="3857713774" x="10.9337916" y="44.6552746">
		<activity type="post_office">
		</activity>

	</facility>

<!-- ====================================================================== -->

	<facility id="38682391" x="10.9663735" y="44.6616021">
		<activity type="car interaction">
			<capacity value="11.0" />
		</activity>

		<attributes>
			<attribute name="links" class="java.lang.String" >38682385;38682391</attribute>
		</attributes>
	</facility>

<!-- ====================================================================== -->

	<facility id="38684202" x="10.9618228" y="44.6534565">
		<activity type="car interaction">
			<capacity value="105.0" />
		</activity>

		<attributes>
			<attribute name="links" class="java.lang.String" >38684202;209558671;489759832</attribute>
		</attributes>
	</facility>

<!-- ====================================================================== -->

	<facility id="38684207" x="10.9679229" y="44.6602008">
		<activity type="car interaction">
			<capacity value="46.0" />
		</activity>

		<attributes>
			<attribute name="links" class="java.lang.String" >32268494;32268497;38684207</attribute>
		</attributes>
	</facility>

<!-- ====================================================================== -->

	<facility id="3949507251" x="10.9305987" y="44.6543214">
		<activity type="cafe">
		</activity>

	</facility>

<!-- ====================================================================== -->

	<facility id="3949507252" x="10.9307479" y="44.6543041">
		<activity type="fast_food">
		</activity>

	</facility>

<!-- ====================================================================== -->

	<facility id="4072635188" x="10.9307122" y="44.6539219">
		<activity type="bicycle_rental">
		</activity>

	</facility>

<!-- ====================================================================== -->

	<facility id="4387131156" x="10.9719099" y="44.6619708">
		<activity type="fuel">
		</activity>

	</facility>

<!-- ====================================================================== -->

	<facility id="4402920547" x="10.9314327" y="44.6579797">
		<activity type="school">
		</activity>

	</facility>

<!-- ====================================================================== -->

	<facility id="4402920548" x="10.9407024" y="44.6550271">
		<activity type="school">
		</activity>

	</facility>

<!-- ====================================================================== -->

	<facility id="4402920549" x="10.9403457" y="44.654491">
		<activity type="kindergarten">
		</activity>

	</facility>

<!-- ====================================================================== -->

	<facility id="442202525" x="10.9265782" y="44.6616985">
		<activity type="kindergarten">
		</activity>

	</facility>

<!-- ====================================================================== -->

	<facility id="442428386" x="10.929003" y="44.6606823">
		<activity type="kindergarten">
		</activity>

	</facility>

<!-- ====================================================================== -->

	<facility id="442620520" x="10.9451203" y="44.659486">
		<activity type="school">
		</activity>

	</facility>

<!-- ====================================================================== -->

	<facility id="4432487189" x="10.9260748" y="44.6528576">
		<activity type="restaurant">
		</activity>

	</facility>

<!-- ====================================================================== -->

	<facility id="4432487289" x="10.9279179" y="44.6528881">
		<activity type="cafe">
		</activity>

	</facility>

<!-- ====================================================================== -->

	<facility id="4432487389" x="10.9283147" y="44.6529072">
		<activity type="fast_food">
		</activity>

	</facility>

<!-- ====================================================================== -->

	<facility id="443778260" x="10.9271568" y="44.6534032">
		<activity type="school">
		</activity>

	</facility>

<!-- ====================================================================== -->

	<facility id="4474120267" x="10.929836" y="44.6544211">
		<activity type="toilets">
		</activity>

	</facility>

<!-- ====================================================================== -->

	<facility id="4497513513" x="10.9255612" y="44.650941">
		<activity type="recycling">
		</activity>

	</facility>

<!-- ====================================================================== -->

	<facility id="4509342900" x="10.9454382" y="44.6543051">
		<activity type="bank">
		</activity>

	</facility>

<!-- ====================================================================== -->

	<facility id="4515927860" x="10.9329595" y="44.6537259">
		<activity type="cinema">
		</activity>

	</facility>

<!-- ====================================================================== -->

	<facility id="4515927880" x="10.9329769" y="44.6535742">
		<activity type="bar">
		</activity>

	</facility>

<!-- ====================================================================== -->

	<facility id="455152176" x="10.9326605" y="44.6536885">
		<activity type="car interaction">
			<capacity value="30.0" />
		</activity>

		<attributes>
			<attribute name="links" class="java.lang.String" >455152176;455152177;455152178</attribute>
		</attributes>
	</facility>

<!-- ====================================================================== -->

	<facility id="4692363715" x="10.9401905" y="44.657459">
		<activity type="toilets">
		</activity>

	</facility>

<!-- ====================================================================== -->

	<facility id="4692365473" x="10.9402009" y="44.6575661">
		<activity type="cafe">
		</activity>

	</facility>

<!-- ====================================================================== -->

	<facility id="4712481508" x="10.9488882" y="44.6560836">
		<activity type="bank">
		</activity>

	</facility>

<!-- ====================================================================== -->

	<facility id="4712487801" x="10.9291493" y="44.6621262">
		<activity type="driving_school">
		</activity>

	</facility>

<!-- ====================================================================== -->

	<facility id="4712487804" x="10.9292886" y="44.6621418">
		<activity type="restaurant">
		</activity>

	</facility>

<!-- ====================================================================== -->

	<facility id="4712488587" x="10.937015" y="44.6597065">
		<activity type="cafe">
		</activity>

	</facility>

<!-- ====================================================================== -->

	<facility id="4712488731" x="10.934872" y="44.6574653">
		<activity type="restaurant">
		</activity>

	</facility>

<!-- ====================================================================== -->

	<facility id="4712504560" x="10.9366474" y="44.6575621">
		<activity type="restaurant">
		</activity>

	</facility>

<!-- ====================================================================== -->

	<facility id="4712504690" x="10.9365184" y="44.6569153">
		<activity type="restaurant">
		</activity>

	</facility>

<!-- ====================================================================== -->

	<facility id="4712504740" x="10.9352052" y="44.6561094">
		<activity type="pharmacy">
		</activity>

	</facility>

<!-- ====================================================================== -->
