<?xml version="1.0" encoding="utf-8"?>
<!DOCTYPE population SYSTEM "http://www.matsim.org/files/dtd/population_v6.dtd">

<population>



<!-- ====================================================================== -->

	<person id="0">
		<attributes>
			<attribute name="drivelogic" class="java.lang.String" >org.matsim.contrib.smartcity.agent.CLASSDriverLogicBasic</attribute>
		</attributes>
		<plan selected="yes">
			<activity type="h" link="89" max_dur="10:07:50" >
			</activity>
			<leg mode="car">
			</leg>
			<activity type="w" link="260" start_time="10:11:43" end_time="19:09:59" >
			</activity>
			<leg mode="car">
			</leg>
			<activity type="h" link="89" >
			</activity>
		</plan>

	</person>

<!-- ====================================================================== -->

	<person id="1">
		<attributes>
			<attribute name="drivelogic" class="java.lang.String" >org.matsim.contrib.smartcity.agent.CLASSDriverLogicBasic</attribute>
		</attributes>
		<plan selected="yes">
			<activity type="h" link="171" max_dur="09:33:39" >
			</activity>
			<leg mode="car">
			</leg>
			<activity type="w" link="2094" start_time="09:39:08" end_time="15:03:16" >
			</activity>
			<leg mode="car">
			</leg>
			<activity type="h" link="171" >
			</activity>
		</plan>

	</person>

<!-- ====================================================================== -->

	<person id="10">
		<attributes>
			<attribute name="drivelogic" class="java.lang.String" >org.matsim.contrib.smartcity.agent.CLASSDriverLogicBasic</attribute>
		</attributes>
		<plan selected="yes">
			<activity type="h" link="2544" max_dur="09:37:27" >
			</activity>
			<leg mode="car">
			</leg>
			<activity type="w" link="1918" start_time="09:41:06" end_time="18:32:24" >
			</activity>
			<leg mode="car">
			</leg>
			<activity type="h" link="2544" >
			</activity>
		</plan>

	</person>

<!-- ====================================================================== -->

	<person id="100">
		<attributes>
			<attribute name="drivelogic" class="java.lang.String" >org.matsim.contrib.smartcity.agent.CLASSDriverLogicBasic</attribute>
		</attributes>
		<plan selected="yes">
			<activity type="h" link="571" max_dur="07:30:04" >
			</activity>
			<leg mode="car">
			</leg>
			<activity type="w" link="3446" start_time="07:33:43" end_time="19:22:24" >
			</activity>
			<leg mode="car">
			</leg>
			<activity type="h" link="571" >
			</activity>
		</plan>

	</person>

<!-- ====================================================================== -->

	<person id="1000">
		<attributes>
			<attribute name="drivelogic" class="java.lang.String" >org.matsim.contrib.smartcity.agent.CLASSDriverLogicBasic</attribute>
		</attributes>
		<plan selected="yes">
			<activity type="h" link="3713" max_dur="08:33:54" >
			</activity>
			<leg mode="car">
			</leg>
			<activity type="w" link="1935" start_time="08:38:53" end_time="18:00:58" >
			</activity>
			<leg mode="car">
			</leg>
			<activity type="h" link="3713" >
			</activity>
		</plan>

	</person>

<!-- ====================================================================== -->

	<person id="1001">
		<attributes>
			<attribute name="drivelogic" class="java.lang.String" >org.matsim.contrib.smartcity.agent.CLASSDriverLogicBasic</attribute>
		</attributes>
		<plan selected="yes">
			<activity type="h" link="3117" max_dur="07:23:26" >
			</activity>
			<leg mode="car">
			</leg>
			<activity type="w" link="2582" start_time="07:26:32" end_time="20:12:44" >
			</activity>
			<leg mode="car">
			</leg>
			<activity type="h" link="3117" >
			</activity>
		</plan>

	</person>

<!-- ====================================================================== -->

	<person id="1002">
		<attributes>
			<attribute name="drivelogic" class="java.lang.String" >org.matsim.contrib.smartcity.agent.CLASSDriverLogicBasic</attribute>
		</attributes>
		<plan selected="yes">
			<activity type="h" link="2005" max_dur="10:10:11" >
			</activity>
			<leg mode="car">
			</leg>
			<activity type="w" link="1070" start_time="10:14:13" end_time="17:54:53" >
			</activity>
			<leg mode="car">
			</leg>
			<activity type="h" link="2005" >
			</activity>
		</plan>

	</person>

<!-- ====================================================================== -->

	<person id="1003">
		<attributes>
			<attribute name="drivelogic" class="java.lang.String" >org.matsim.contrib.smartcity.agent.CLASSDriverLogicBasic</attribute>
		</attributes>
		<plan selected="yes">
			<activity type="h" link="1544" max_dur="08:14:26" >
			</activity>
			<leg mode="car">
			</leg>
			<activity type="w" link="2533" start_time="08:17:08" end_time="16:36:29" >
			</activity>
			<leg mode="car">
			</leg>
			<activity type="h" link="1544" >
			</activity>
		</plan>

	</person>

<!-- ====================================================================== -->

	<person id="1004">
		<attributes>
			<attribute name="drivelogic" class="java.lang.String" >org.matsim.contrib.smartcity.agent.CLASSDriverLogicBasic</attribute>
		</attributes>
		<plan selected="yes">
			<activity type="h" link="3811" max_dur="08:47:28" >
			</activity>
			<leg mode="car">
			</leg>
			<activity type="w" link="2342" start_time="08:53:31" end_time="17:45:39" >
			</activity>
			<leg mode="car">
			</leg>
			<activity type="h" link="3811" >
			</activity>
		</plan>

	</person>

<!-- ====================================================================== -->

	<person id="1005">
		<attributes>
			<attribute name="drivelogic" class="java.lang.String" >org.matsim.contrib.smartcity.agent.CLASSDriverLogicBasic</attribute>
		</attributes>
		<plan selected="yes">
			<activity type="h" link="2899" max_dur="09:28:56" >
			</activity>
			<leg mode="car">
			</leg>
			<activity type="w" link="2682" start_time="09:35:03" end_time="16:59:42" >
			</activity>
			<leg mode="car">
			</leg>
			<activity type="h" link="2899" >
			</activity>
		</plan>

	</person>

<!-- ====================================================================== -->

	<person id="1006">
		<attributes>
			<attribute name="drivelogic" class="java.lang.String" >org.matsim.contrib.smartcity.agent.CLASSDriverLogicBasic</attribute>
		</attributes>
		<plan selected="yes">
			<activity type="h" link="3106" max_dur="09:57:54" >
			</activity>
			<leg mode="car">
			</leg>
			<activity type="w" link="899" start_time="10:01:48" end_time="17:22:08" >
			</activity>
			<leg mode="car">
			</leg>
			<activity type="h" link="3106" >
			</activity>
		</plan>

	</person>

<!-- ====================================================================== -->

	<person id="1007">
		<attributes>
			<attribute name="drivelogic" class="java.lang.String" >org.matsim.contrib.smartcity.agent.CLASSDriverLogicBasic</attribute>
		</attributes>
		<plan selected="yes">
			<activity type="h" link="3437" max_dur="10:01:25" >
			</activity>
			<leg mode="car">
			</leg>
			<activity type="w" link="2713" start_time="10:02:27" end_time="17:21:30" >
			</activity>
			<leg mode="car">
			</leg>
			<activity type="h" link="3437" >
			</activity>
		</plan>

	</person>

<!-- ====================================================================== -->

	<person id="1008">
		<attributes>
			<attribute name="drivelogic" class="java.lang.String" >org.matsim.contrib.smartcity.agent.CLASSDriverLogicBasic</attribute>
		</attributes>
		<plan selected="yes">
			<activity type="h" link="1155" max_dur="09:42:59" >
			</activity>
			<leg mode="car">
			</leg>
			<activity type="w" link="3103" start_time="09:44:51" end_time="18:01:55" >
			</activity>
			<leg mode="car">
			</leg>
			<activity type="h" link="1155" >
			</activity>
		</plan>

	</person>

<!-- ====================================================================== -->

	<person id="1009">
		<attributes>
			<attribute name="drivelogic" class="java.lang.String" >org.matsim.contrib.smartcity.agent.CLASSDriverLogicBasic</attribute>
		</attributes>
		<plan selected="yes">
			<activity type="h" link="3719" max_dur="08:38:42" >
			</activity>
			<leg mode="car">
			</leg>
			<activity type="w" link="883" start_time="08:44:15" end_time="20:19:53" >
			</activity>
			<leg mode="car">
			</leg>
			<activity type="h" link="3719" >
			</activity>
		</plan>

	</person>

<!-- ====================================================================== -->

	<person id="101">
		<attributes>
			<attribute name="drivelogic" class="java.lang.String" >org.matsim.contrib.smartcity.agent.CLASSDriverLogicBasic</attribute>
		</attributes>
		<plan selected="yes">
			<activity type="h" link="2994" max_dur="08:13:13" >
			</activity>
			<leg mode="car">
			</leg>
			<activity type="w" link="3838" start_time="08:20:13" end_time="19:11:30" >
			</activity>
			<leg mode="car">
			</leg>
			<activity type="h" link="2994" >
			</activity>
		</plan>

	</person>

<!-- ====================================================================== -->

	<person id="1010">
		<attributes>
			<attribute name="drivelogic" class="java.lang.String" >org.matsim.contrib.smartcity.agent.CLASSDriverLogicBasic</attribute>
		</attributes>
		<plan selected="yes">
			<activity type="h" link="1838" max_dur="07:49:36" >
			</activity>
			<leg mode="car">
			</leg>
			<activity type="w" link="1836" start_time="07:51:10" end_time="18:45:52" >
			</activity>
			<leg mode="car">
			</leg>
			<activity type="h" link="1838" >
			</activity>
		</plan>

	</person>

<!-- ====================================================================== -->

	<person id="1011">
		<attributes>
			<attribute name="drivelogic" class="java.lang.String" >org.matsim.contrib.smartcity.agent.CLASSDriverLogicBasic</attribute>
		</attributes>
		<plan selected="yes">
			<activity type="h" link="686" max_dur="08:16:43" >
			</activity>
			<leg mode="car">
			</leg>
			<activity type="w" link="1875" start_time="08:29:16" end_time="18:59:07" >
			</activity>
			<leg mode="car">
			</leg>
			<activity type="h" link="686" >
			</activity>
		</plan>

	</person>

<!-- ====================================================================== -->

	<person id="1012">
		<attributes>
			<attribute name="drivelogic" class="java.lang.String" >org.matsim.contrib.smartcity.agent.CLASSDriverLogicBasic</attribute>
		</attributes>
		<plan selected="yes">
			<activity type="h" link="1077" max_dur="10:32:36" >
			</activity>
			<leg mode="car">
			</leg>
			<activity type="w" link="733" start_time="10:38:08" end_time="17:36:32" >
			</activity>
			<leg mode="car">
			</leg>
			<activity type="h" link="1077" >
			</activity>
		</plan>

	</person>

<!-- ====================================================================== -->

	<person id="1013">
		<attributes>
			<attribute name="drivelogic" class="java.lang.String" >org.matsim.contrib.smartcity.agent.CLASSDriverLogicBasic</attribute>
		</attributes>
		<plan selected="yes">
			<activity type="h" link="1484" max_dur="07:49:53" >
			</activity>
			<leg mode="car">
			</leg>
			<activity type="w" link="1546" start_time="07:53:58" end_time="18:51:43" >
			</activity>
			<leg mode="car">
			</leg>
			<activity type="h" link="1484" >
			</activity>
		</plan>

	</person>

<!-- ====================================================================== -->

	<person id="1014">
		<attributes>
			<attribute name="drivelogic" class="java.lang.String" >org.matsim.contrib.smartcity.agent.CLASSDriverLogicBasic</attribute>
		</attributes>
		<plan selected="yes">
			<activity type="h" link="2936" max_dur="08:39:16" >
			</activity>
			<leg mode="car">
			</leg>
			<activity type="w" link="3633" start_time="08:44:18" end_time="17:22:39" >
			</activity>
			<leg mode="car">
			</leg>
			<activity type="h" link="2936" >
			</activity>
		</plan>

	</person>

<!-- ====================================================================== -->

	<person id="1015">
		<attributes>
			<attribute name="drivelogic" class="java.lang.String" >org.matsim.contrib.smartcity.agent.CLASSDriverLogicBasic</attribute>
		</attributes>
		<plan selected="yes">
			<activity type="h" link="548" max_dur="09:10:57" >
			</activity>
			<leg mode="car">
			</leg>
			<activity type="w" link="540" start_time="09:18:26" end_time="18:54:04" >
			</activity>
			<leg mode="car">
			</leg>
			<activity type="h" link="548" >
			</activity>
		</plan>

	</person>

<!-- ====================================================================== -->

	<person id="1016">
		<attributes>
			<attribute name="drivelogic" class="java.lang.String" >org.matsim.contrib.smartcity.agent.CLASSDriverLogicBasic</attribute>
		</attributes>
		<plan selected="yes">
			<activity type="h" link="2893" max_dur="07:19:46" >
			</activity>
			<leg mode="car">
			</leg>
			<activity type="w" link="1607" start_time="07:23:37" end_time="17:53:06" >
			</activity>
			<leg mode="car">
			</leg>
			<activity type="h" link="2893" >
			</activity>
		</plan>

	</person>

<!-- ====================================================================== -->

	<person id="1017">
		<attributes>
			<attribute name="drivelogic" class="java.lang.String" >org.matsim.contrib.smartcity.agent.CLASSDriverLogicBasic</attribute>
		</attributes>
		<plan selected="yes">
			<activity type="h" link="3890" max_dur="09:09:33" >
			</activity>
			<leg mode="car">
			</leg>
			<activity type="w" link="334" start_time="09:14:58" end_time="17:57:50" >
			</activity>
			<leg mode="car">
			</leg>
			<activity type="h" link="3890" >
			</activity>
		</plan>

	</person>

<!-- ====================================================================== -->

	<person id="1018">
		<attributes>
			<attribute name="drivelogic" class="java.lang.String" >org.matsim.contrib.smartcity.agent.CLASSDriverLogicBasic</attribute>
		</attributes>
		<plan selected="yes">
			<activity type="h" link="3341" max_dur="09:21:29" >
			</activity>
			<leg mode="car">
			</leg>
			<activity type="w" link="3316" start_time="09:24:37" end_time="19:08:46" >
			</activity>
			<leg mode="car">
			</leg>
			<activity type="h" link="3341" >
			</activity>
		</plan>

	</person>

<!-- ====================================================================== -->

	<person id="1019">
		<attributes>
			<attribute name="drivelogic" class="java.lang.String" >org.matsim.contrib.smartcity.agent.CLASSDriverLogicBasic</attribute>
		</attributes>
		<plan selected="yes">
			<activity type="h" link="1391" max_dur="09:10:03" >
			</activity>
			<leg mode="car">
			</leg>
			<activity type="w" link="3533" start_time="09:13:44" end_time="18:42:49" >
			</activity>
			<leg mode="car">
			</leg>
			<activity type="h" link="1391" >
			</activity>
		</plan>

	</person>

<!-- ====================================================================== -->

	<person id="102">
		<attributes>
			<attribute name="drivelogic" class="java.lang.String" >org.matsim.contrib.smartcity.agent.CLASSDriverLogicBasic</attribute>
		</attributes>
		<plan selected="yes">
			<activity type="h" link="2610" max_dur="09:08:27" >
			</activity>
			<leg mode="car">
			</leg>
			<activity type="w" link="2226" start_time="09:10:16" end_time="18:44:14" >
			</activity>
			<leg mode="car">
			</leg>
			<activity type="h" link="2610" >
			</activity>
		</plan>

	</person>

<!-- ====================================================================== -->

	<person id="1020">
		<attributes>
			<attribute name="drivelogic" class="java.lang.String" >org.matsim.contrib.smartcity.agent.CLASSDriverLogicBasic</attribute>
		</attributes>
		<plan selected="yes">
			<activity type="h" link="2631" max_dur="07:10:44" >
			</activity>
			<leg mode="car">
			</leg>
			<activity type="w" link="3249" start_time="07:12:43" end_time="18:21:11" >
			</activity>
			<leg mode="car">
			</leg>
			<activity type="h" link="2631" >
			</activity>
		</plan>

	</person>

<!-- ====================================================================== -->

	<person id="1021">
		<attributes>
			<attribute name="drivelogic" class="java.lang.String" >org.matsim.contrib.smartcity.agent.CLASSDriverLogicBasic</attribute>
		</attributes>
		<plan selected="yes">
			<activity type="h" link="2261" max_dur="07:18:07" >
			</activity>
			<leg mode="car">
			</leg>
			<activity type="w" link="285" start_time="07:23:23" end_time="17:56:55" >
			</activity>
			<leg mode="car">
			</leg>
			<activity type="h" link="2261" >
			</activity>
		</plan>

	</person>

<!-- ====================================================================== -->

	<person id="1022">
		<attributes>
			<attribute name="drivelogic" class="java.lang.String" >org.matsim.contrib.smartcity.agent.CLASSDriverLogicBasic</attribute>
		</attributes>
		<plan selected="yes">
			<activity type="h" link="395" max_dur="07:19:05" >
			</activity>
			<leg mode="car">
			</leg>
			<activity type="w" link="2511" start_time="07:40:40" end_time="17:34:41" >
			</activity>
			<leg mode="car">
			</leg>
			<activity type="h" link="395" >
			</activity>
		</plan>

	</person>

<!-- ====================================================================== -->

	<person id="1023">
		<attributes>
			<attribute name="drivelogic" class="java.lang.String" >org.matsim.contrib.smartcity.agent.CLASSDriverLogicBasic</attribute>
		</attributes>
		<plan selected="yes">
			<activity type="h" link="1876" max_dur="07:10:56" >
			</activity>
			<leg mode="car">
			</leg>
			<activity type="w" link="3520" start_time="07:25:09" end_time="18:17:30" >
			</activity>
			<leg mode="car">
			</leg>
			<activity type="h" link="1876" >
			</activity>
		</plan>

	</person>

<!-- ====================================================================== -->

	<person id="1024">
		<attributes>
			<attribute name="drivelogic" class="java.lang.String" >org.matsim.contrib.smartcity.agent.CLASSDriverLogicBasic</attribute>
		</attributes>
		<plan selected="yes">
			<activity type="h" link="1836" max_dur="09:03:41" >
			</activity>
			<leg mode="car">
			</leg>
			<activity type="w" link="1539" start_time="09:08:30" end_time="18:28:30" >
			</activity>
			<leg mode="car">
			</leg>
			<activity type="h" link="1836" >
			</activity>
		</plan>

	</person>

<!-- ====================================================================== -->

	<person id="1025">
		<attributes>
			<attribute name="drivelogic" class="java.lang.String" >org.matsim.contrib.smartcity.agent.CLASSDriverLogicBasic</attribute>
		</attributes>
		<plan selected="yes">
			<activity type="h" link="562" max_dur="07:49:00" >
			</activity>
			<leg mode="car">
			</leg>
			<activity type="w" link="3645" start_time="07:54:47" end_time="19:32:03" >
			</activity>
			<leg mode="car">
			</leg>
			<activity type="h" link="562" >
			</activity>
		</plan>

	</person>

<!-- ====================================================================== -->

	<person id="1026">
		<attributes>
			<attribute name="drivelogic" class="java.lang.String" >org.matsim.contrib.smartcity.agent.CLASSDriverLogicBasic</attribute>
		</attributes>
		<plan selected="yes">
			<activity type="h" link="1285" max_dur="09:18:19" >
			</activity>
			<leg mode="car">
			</leg>
			<activity type="w" link="3671" start_time="09:23:25" end_time="16:21:17" >
			</activity>
			<leg mode="car">
			</leg>
			<activity type="h" link="1285" >
			</activity>
		</plan>

	</person>

<!-- ====================================================================== -->

	<person id="1027">
		<attributes>
			<attribute name="drivelogic" class="java.lang.String" >org.matsim.contrib.smartcity.agent.CLASSDriverLogicBasic</attribute>
		</attributes>
		<plan selected="yes">
			<activity type="h" link="2477" max_dur="06:26:56" >
			</activity>
			<leg mode="car">
			</leg>
			<activity type="w" link="3339" start_time="06:29:52" end_time="18:50:48" >
			</activity>
			<leg mode="car">
			</leg>
			<activity type="h" link="2477" >
			</activity>
		</plan>

	</person>

<!-- ====================================================================== -->

	<person id="1028">
		<attributes>
			<attribute name="drivelogic" class="java.lang.String" >org.matsim.contrib.smartcity.agent.CLASSDriverLogicBasic</attribute>
		</attributes>
		<plan selected="yes">
			<activity type="h" link="47" max_dur="09:00:50" >
			</activity>
			<leg mode="car">
			</leg>
			<activity type="w" link="1716" start_time="09:05:59" end_time="19:48:38" >
			</activity>
			<leg mode="car">
			</leg>
			<activity type="h" link="47" >
			</activity>
		</plan>

	</person>

<!-- ====================================================================== -->

	<person id="1029">
		<attributes>
			<attribute name="drivelogic" class="java.lang.String" >org.matsim.contrib.smartcity.agent.CLASSDriverLogicBasic</attribute>
		</attributes>
		<plan selected="yes">
			<activity type="h" link="338" max_dur="08:00:02" >
			</activity>
			<leg mode="car">
			</leg>
			<activity type="w" link="887" start_time="08:02:47" end_time="18:36:08" >
			</activity>
			<leg mode="car">
			</leg>
			<activity type="h" link="338" >
			</activity>
		</plan>

	</person>

<!-- ====================================================================== -->

	<person id="103">
		<attributes>
			<attribute name="drivelogic" class="java.lang.String" >org.matsim.contrib.smartcity.agent.CLASSDriverLogicBasic</attribute>
		</attributes>
		<plan selected="yes">
			<activity type="h" link="1846" max_dur="09:30:18" >
			</activity>
			<leg mode="car">
			</leg>
			<activity type="w" link="3722" start_time="09:31:58" end_time="17:53:25" >
			</activity>
			<leg mode="car">
			</leg>
			<activity type="h" link="1846" >
			</activity>
		</plan>

	</person>

<!-- ====================================================================== -->

	<person id="1030">
		<attributes>
			<attribute name="drivelogic" class="java.lang.String" >org.matsim.contrib.smartcity.agent.CLASSDriverLogicBasic</attribute>
		</attributes>
		<plan selected="yes">
			<activity type="h" link="2106" max_dur="06:52:38" >
			</activity>
			<leg mode="car">
			</leg>
			<activity type="w" link="394" start_time="07:01:07" end_time="19:50:41" >
			</activity>
			<leg mode="car">
			</leg>
			<activity type="h" link="2106" >
			</activity>
		</plan>

	</person>

<!-- ====================================================================== -->

	<person id="1031">
		<attributes>
			<attribute name="drivelogic" class="java.lang.String" >org.matsim.contrib.smartcity.agent.CLASSDriverLogicBasic</attribute>
		</attributes>
		<plan selected="yes">
			<activity type="h" link="2078" max_dur="07:44:42" >
			</activity>
			<leg mode="car">
			</leg>
			<activity type="w" link="1921" start_time="07:51:26" end_time="17:59:53" >
			</activity>
			<leg mode="car">
			</leg>
			<activity type="h" link="2078" >
			</activity>
		</plan>

	</person>

<!-- ====================================================================== -->

	<person id="1032">
		<attributes>
			<attribute name="drivelogic" class="java.lang.String" >org.matsim.contrib.smartcity.agent.CLASSDriverLogicBasic</attribute>
		</attributes>
		<plan selected="yes">
			<activity type="h" link="253" max_dur="08:45:43" >
			</activity>
			<leg mode="car">
			</leg>
			<activity type="w" link="601" start_time="08:47:26" end_time="20:35:46" >
			</activity>
			<leg mode="car">
			</leg>
			<activity type="h" link="253" >
			</activity>
		</plan>

	</person>

<!-- ====================================================================== -->

	<person id="1033">
		<attributes>
			<attribute name="drivelogic" class="java.lang.String" >org.matsim.contrib.smartcity.agent.CLASSDriverLogicBasic</attribute>
		</attributes>
		<plan selected="yes">
			<activity type="h" link="1877" max_dur="09:04:55" >
			</activity>
			<leg mode="car">
			</leg>
			<activity type="w" link="773" start_time="09:09:35" end_time="18:27:10" >
			</activity>
			<leg mode="car">
			</leg>
			<activity type="h" link="1877" >
			</activity>
		</plan>

	</person>

<!-- ====================================================================== -->

	<person id="1034">
		<attributes>
			<attribute name="drivelogic" class="java.lang.String" >org.matsim.contrib.smartcity.agent.CLASSDriverLogicBasic</attribute>
		</attributes>
		<plan selected="yes">
			<activity type="h" link="1854" max_dur="07:01:58" >
			</activity>
			<leg mode="car">
			</leg>
			<activity type="w" link="390" start_time="07:14:12" end_time="18:48:09" >
			</activity>
			<leg mode="car">
			</leg>
			<activity type="h" link="1854" >
			</activity>
		</plan>

	</person>

<!-- ====================================================================== -->

	<person id="1035">
		<attributes>
			<attribute name="drivelogic" class="java.lang.String" >org.matsim.contrib.smartcity.agent.CLASSDriverLogicBasic</attribute>
		</attributes>
		<plan selected="yes">
			<activity type="h" link="1063" max_dur="07:58:36" >
			</activity>
			<leg mode="car">
			</leg>
			<activity type="w" link="2369" start_time="08:03:58" end_time="19:13:56" >
			</activity>
			<leg mode="car">
			</leg>
			<activity type="h" link="1063" >
			</activity>
		</plan>

	</person>

<!-- ====================================================================== -->

	<person id="1036">
		<attributes>
			<attribute name="drivelogic" class="java.lang.String" >org.matsim.contrib.smartcity.agent.CLASSDriverLogicBasic</attribute>
		</attributes>
		<plan selected="yes">
			<activity type="h" link="997" max_dur="07:59:38" >
			</activity>
			<leg mode="car">
			</leg>
			<activity type="w" link="2704" start_time="08:06:19" end_time="17:37:29" >
			</activity>
			<leg mode="car">
			</leg>
			<activity type="h" link="997" >
			</activity>
		</plan>

	</person>

<!-- ====================================================================== -->

	<person id="1037">
		<attributes>
			<attribute name="drivelogic" class="java.lang.String" >org.matsim.contrib.smartcity.agent.CLASSDriverLogicBasic</attribute>
		</attributes>
		<plan selected="yes">
			<activity type="h" link="3322" max_dur="09:55:01" >
			</activity>
			<leg mode="car">
			</leg>
			<activity type="w" link="96" start_time="10:04:29" end_time="18:58:07" >
			</activity>
			<leg mode="car">
			</leg>
			<activity type="h" link="3322" >
			</activity>
		</plan>

	</person>

<!-- ====================================================================== -->

	<person id="1038">
		<attributes>
			<attribute name="drivelogic" class="java.lang.String" >org.matsim.contrib.smartcity.agent.CLASSDriverLogicBasic</attribute>
		</attributes>
		<plan selected="yes">
			<activity type="h" link="2845" max_dur="09:01:25" >
			</activity>
			<leg mode="car">
			</leg>
			<activity type="w" link="1966" start_time="09:13:11" end_time="17:42:47" >
			</activity>
			<leg mode="car">
			</leg>
			<activity type="h" link="2845" >
			</activity>
		</plan>

	</person>

<!-- ====================================================================== -->

	<person id="1039">
		<attributes>
			<attribute name="drivelogic" class="java.lang.String" >org.matsim.contrib.smartcity.agent.CLASSDriverLogicBasic</attribute>
		</attributes>
		<plan selected="yes">
			<activity type="h" link="2958" max_dur="09:11:12" >
			</activity>
			<leg mode="car">
			</leg>
			<activity type="w" link="2737" start_time="09:12:38" end_time="18:31:20" >
			</activity>
			<leg mode="car">
			</leg>
			<activity type="h" link="2958" >
			</activity>
		</plan>

	</person>

<!-- ====================================================================== -->

	<person id="104">
		<attributes>
			<attribute name="drivelogic" class="java.lang.String" >org.matsim.contrib.smartcity.agent.CLASSDriverLogicBasic</attribute>
		</attributes>
		<plan selected="yes">
			<activity type="h" link="3047" max_dur="08:38:08" >
			</activity>
			<leg mode="car">
			</leg>
			<activity type="w" link="3570" start_time="08:42:56" end_time="17:52:35" >
			</activity>
			<leg mode="car">
			</leg>
			<activity type="h" link="3047" >
			</activity>
		</plan>

	</person>

<!-- ====================================================================== -->

	<person id="1040">
		<attributes>
			<attribute name="drivelogic" class="java.lang.String" >org.matsim.contrib.smartcity.agent.CLASSDriverLogicBasic</attribute>
		</attributes>
		<plan selected="yes">
			<activity type="h" link="305" max_dur="08:25:17" >
			</activity>
			<leg mode="car">
			</leg>
			<activity type="w" link="1247" start_time="08:28:25" end_time="19:03:21" >
			</activity>
			<leg mode="car">
			</leg>
			<activity type="h" link="305" >
			</activity>
		</plan>

	</person>

<!-- ====================================================================== -->

	<person id="1041">
		<attributes>
			<attribute name="drivelogic" class="java.lang.String" >org.matsim.contrib.smartcity.agent.CLASSDriverLogicBasic</attribute>
		</attributes>
		<plan selected="yes">
			<activity type="h" link="701" max_dur="09:56:33" >
			</activity>
			<leg mode="car">
			</leg>
			<activity type="w" link="1972" start_time="10:05:53" end_time="17:39:15" >
			</activity>
			<leg mode="car">
			</leg>
			<activity type="h" link="701" >
			</activity>
		</plan>

	</person>

<!-- ====================================================================== -->

	<person id="1042">
		<attributes>
			<attribute name="drivelogic" class="java.lang.String" >org.matsim.contrib.smartcity.agent.CLASSDriverLogicBasic</attribute>
		</attributes>
		<plan selected="yes">
			<activity type="h" link="1421" max_dur="07:31:34" >
			</activity>
			<leg mode="car">
			</leg>
			<activity type="w" link="2020" start_time="07:46:31" end_time="18:22:07" >
			</activity>
			<leg mode="car">
			</leg>
			<activity type="h" link="1421" >
			</activity>
		</plan>

	</person>

<!-- ====================================================================== -->

	<person id="1043">
		<attributes>
			<attribute name="drivelogic" class="java.lang.String" >org.matsim.contrib.smartcity.agent.CLASSDriverLogicBasic</attribute>
		</attributes>
		<plan selected="yes">
			<activity type="h" link="1580" max_dur="10:16:45" >