<?xml version="1.0" encoding="utf-8"?>
<!DOCTYPE population SYSTEM "http://www.matsim.org/files/dtd/population_v6.dtd">

<population>



<!-- ====================================================================== -->

	<person id="0">
		<attributes>
			<attribute name="drivelogic" class="java.lang.String" >org.matsim.contrib.smartcity.agent.CLASSDriverLogicBasic</attribute>
		</attributes>
		<plan selected="yes">
			<activity type="h" link="992" max_dur="07:10:04" >
			</activity>
			<leg mode="car">
			</leg>
			<activity type="w" link="636" start_time="07:11:18" end_time="18:20:36" >
			</activity>
			<leg mode="car">
			</leg>
			<activity type="h" link="992" >
			</activity>
		</plan>

	</person>

<!-- ====================================================================== -->

	<person id="1">
		<attributes>
			<attribute name="drivelogic" class="java.lang.String" >org.matsim.contrib.smartcity.agent.CLASSDriverLogicBasic</attribute>
		</attributes>
		<plan selected="yes">
			<activity type="h" link="1062" max_dur="09:38:08" >
			</activity>
			<leg mode="car">
			</leg>
			<activity type="w" link="1151" start_time="09:41:11" end_time="16:28:31" >
			</activity>
			<leg mode="car">
			</leg>
			<activity type="h" link="1062" >
			</activity>
		</plan>

	</person>

<!-- ====================================================================== -->

	<person id="10">
		<attributes>
			<attribute name="drivelogic" class="java.lang.String" >org.matsim.contrib.smartcity.agent.CLASSDriverLogicBasic</attribute>
		</attributes>
		<plan selected="yes">
			<activity type="h" link="629" max_dur="10:12:20" >
			</activity>
			<leg mode="car">
			</leg>
			<activity type="w" link="1043" start_time="10:12:55" end_time="16:00:58" >
			</activity>
			<leg mode="car">
			</leg>
			<activity type="h" link="629" >
			</activity>
		</plan>

	</person>

<!-- ====================================================================== -->

	<person id="100">
		<attributes>
			<attribute name="drivelogic" class="java.lang.String" >org.matsim.contrib.smartcity.agent.CLASSDriverLogicBasic</attribute>
		</attributes>
		<plan selected="yes">
			<activity type="h" link="564" max_dur="07:24:05" >
			</activity>
			<leg mode="car">
			</leg>
			<activity type="w" link="1069" start_time="07:27:09" end_time="17:19:30" >
			</activity>
			<leg mode="car">
			</leg>
			<activity type="h" link="564" >
			</activity>
		</plan>

	</person>

<!-- ====================================================================== -->

	<person id="1000">
		<attributes>
			<attribute name="drivelogic" class="java.lang.String" >org.matsim.contrib.smartcity.agent.CLASSDriverLogicBasic</attribute>
		</attributes>
		<plan selected="yes">
			<activity type="h" link="932" max_dur="07:49:51" >
			</activity>
			<leg mode="car">
			</leg>
			<activity type="w" link="634" start_time="07:52:31" end_time="17:13:55" >
			</activity>
			<leg mode="car">
			</leg>
			<activity type="h" link="932" >
			</activity>
		</plan>

	</person>

<!-- ====================================================================== -->

	<person id="1001">
		<attributes>
			<attribute name="drivelogic" class="java.lang.String" >org.matsim.contrib.smartcity.agent.CLASSDriverLogicBasic</attribute>
		</attributes>
		<plan selected="yes">
			<activity type="h" link="648" max_dur="10:48:02" >
			</activity>
			<leg mode="car">
			</leg>
			<activity type="w" link="495" start_time="10:48:47" end_time="18:18:07" >
			</activity>
			<leg mode="car">
			</leg>
			<activity type="h" link="648" >
			</activity>
		</plan>

	</person>

<!-- ====================================================================== -->

	<person id="1002">
		<attributes>
			<attribute name="drivelogic" class="java.lang.String" >org.matsim.contrib.smartcity.agent.CLASSDriverLogicBasic</attribute>
		</attributes>
		<plan selected="yes">
			<activity type="h" link="707" max_dur="10:25:47" >
			</activity>
			<leg mode="car">
			</leg>
			<activity type="w" link="1030" start_time="10:29:15" end_time="18:41:32" >
			</activity>
			<leg mode="car">
			</leg>
			<activity type="h" link="707" >
			</activity>
		</plan>

	</person>

<!-- ====================================================================== -->

	<person id="1003">
		<attributes>
			<attribute name="drivelogic" class="java.lang.String" >org.matsim.contrib.smartcity.agent.CLASSDriverLogicBasic</attribute>
		</attributes>
		<plan selected="yes">
			<activity type="h" link="218" max_dur="07:29:09" >
			</activity>
			<leg mode="car">
			</leg>
			<activity type="w" link="867" start_time="07:31:08" end_time="17:26:25" >
			</activity>
			<leg mode="car">
			</leg>
			<activity type="h" link="218" >
			</activity>
		</plan>

	</person>

<!-- ====================================================================== -->

	<person id="1004">
		<attributes>
			<attribute name="drivelogic" class="java.lang.String" >org.matsim.contrib.smartcity.agent.CLASSDriverLogicBasic</attribute>
		</attributes>
		<plan selected="yes">
			<activity type="h" link="273" max_dur="08:52:27" >
			</activity>
			<leg mode="car">
			</leg>
			<activity type="w" link="496" start_time="08:54:44" end_time="18:48:14" >
			</activity>
			<leg mode="car">
			</leg>
			<activity type="h" link="273" >
			</activity>
		</plan>

	</person>

<!-- ====================================================================== -->

	<person id="1005">
		<attributes>
			<attribute name="drivelogic" class="java.lang.String" >org.matsim.contrib.smartcity.agent.CLASSDriverLogicBasic</attribute>
		</attributes>
		<plan selected="yes">
			<activity type="h" link="435" max_dur="09:16:46" >
			</activity>
			<leg mode="car">
			</leg>
			<activity type="w" link="402" start_time="09:16:51" end_time="18:41:35" >
			</activity>
			<leg mode="car">
			</leg>
			<activity type="h" link="435" >
			</activity>
		</plan>

	</person>

<!-- ====================================================================== -->

	<person id="1006">
		<attributes>
			<attribute name="drivelogic" class="java.lang.String" >org.matsim.contrib.smartcity.agent.CLASSDriverLogicBasic</attribute>
		</attributes>
		<plan selected="yes">
			<activity type="h" link="937" max_dur="09:23:46" >
			</activity>
			<leg mode="car">
			</leg>
			<activity type="w" link="1128" start_time="09:26:30" end_time="18:19:36" >
			</activity>
			<leg mode="car">
			</leg>
			<activity type="h" link="937" >
			</activity>
		</plan>

	</person>

<!-- ====================================================================== -->

	<person id="1007">
		<attributes>
			<attribute name="drivelogic" class="java.lang.String" >org.matsim.contrib.smartcity.agent.CLASSDriverLogicBasic</attribute>
		</attributes>
		<plan selected="yes">
			<activity type="h" link="1064" max_dur="09:58:26" >
			</activity>
			<leg mode="car">
			</leg>
			<activity type="w" link="753" start_time="10:00:02" end_time="18:14:51" >
			</activity>
			<leg mode="car">
			</leg>
			<activity type="h" link="1064" >
			</activity>
		</plan>

	</person>

<!-- ====================================================================== -->

	<person id="1008">
		<attributes>
			<attribute name="drivelogic" class="java.lang.String" >org.matsim.contrib.smartcity.agent.CLASSDriverLogicBasic</attribute>
		</attributes>
		<plan selected="yes">
			<activity type="h" link="893" max_dur="09:24:01" >
			</activity>
			<leg mode="car">
			</leg>
			<activity type="w" link="389" start_time="09:25:26" end_time="19:18:09" >
			</activity>
			<leg mode="car">
			</leg>
			<activity type="h" link="893" >
			</activity>
		</plan>

	</person>

<!-- ====================================================================== -->

	<person id="1009">
		<attributes>
			<attribute name="drivelogic" class="java.lang.String" >org.matsim.contrib.smartcity.agent.CLASSDriverLogicBasic</attribute>
		</attributes>
		<plan selected="yes">
			<activity type="h" link="387" max_dur="07:25:29" >
			</activity>
			<leg mode="car">
			</leg>
			<activity type="w" link="343" start_time="07:27:41" end_time="18:33:02" >
			</activity>
			<leg mode="car">
			</leg>
			<activity type="h" link="387" >
			</activity>
		</plan>

	</person>

<!-- ====================================================================== -->

	<person id="101">
		<attributes>
			<attribute name="drivelogic" class="java.lang.String" >org.matsim.contrib.smartcity.agent.CLASSDriverLogicBasic</attribute>
		</attributes>
		<plan selected="yes">
			<activity type="h" link="282" max_dur="09:10:54" >
			</activity>
			<leg mode="car">
			</leg>
			<activity type="w" link="376" start_time="09:11:45" end_time="18:48:24" >
			</activity>
			<leg mode="car">
			</leg>
			<activity type="h" link="282" >
			</activity>
		</plan>

	</person>

<!-- ====================================================================== -->

	<person id="1010">
		<attributes>
			<attribute name="drivelogic" class="java.lang.String" >org.matsim.contrib.smartcity.agent.CLASSDriverLogicBasic</attribute>
		</attributes>
		<plan selected="yes">
			<activity type="h" link="984" max_dur="09:17:00" >
			</activity>
			<leg mode="car">
			</leg>
			<activity type="w" link="564" start_time="09:18:39" end_time="17:49:22" >
			</activity>
			<leg mode="car">
			</leg>
			<activity type="h" link="984" >
			</activity>
		</plan>

	</person>

<!-- ====================================================================== -->

	<person id="1011">
		<attributes>
			<attribute name="drivelogic" class="java.lang.String" >org.matsim.contrib.smartcity.agent.CLASSDriverLogicBasic</attribute>
		</attributes>
		<plan selected="yes">
			<activity type="h" link="725" max_dur="08:43:52" >
			</activity>
			<leg mode="car">
			</leg>
			<activity type="w" link="889" start_time="08:44:49" end_time="17:45:13" >
			</activity>
			<leg mode="car">
			</leg>
			<activity type="h" link="725" >
			</activity>
		</plan>

	</person>

<!-- ====================================================================== -->

	<person id="1012">
		<attributes>
			<attribute name="drivelogic" class="java.lang.String" >org.matsim.contrib.smartcity.agent.CLASSDriverLogicBasic</attribute>
		</attributes>
		<plan selected="yes">
			<activity type="h" link="843" max_dur="09:33:21" >
			</activity>
			<leg mode="car">
			</leg>
			<activity type="w" link="675" start_time="09:36:08" end_time="16:53:59" >
			</activity>
			<leg mode="car">
			</leg>
			<activity type="h" link="843" >
			</activity>
		</plan>

	</person>

<!-- ====================================================================== -->

	<person id="1013">
		<attributes>
			<attribute name="drivelogic" class="java.lang.String" >org.matsim.contrib.smartcity.agent.CLASSDriverLogicBasic</attribute>
		</attributes>
		<plan selected="yes">
			<activity type="h" link="254" max_dur="06:55:06" >
			</activity>
			<leg mode="car">
			</leg>
			<activity type="w" link="1139" start_time="06:57:55" end_time="18:47:06" >
			</activity>
			<leg mode="car">
			</leg>
			<activity type="h" link="254" >
			</activity>
		</plan>

	</person>

<!-- ====================================================================== -->

	<person id="1014">
		<attributes>
			<attribute name="drivelogic" class="java.lang.String" >org.matsim.contrib.smartcity.agent.CLASSDriverLogicBasic</attribute>
		</attributes>
		<plan selected="yes">
			<activity type="h" link="1116" max_dur="10:39:25" >
			</activity>
			<leg mode="car">
			</leg>
			<activity type="w" link="738" start_time="10:43:17" end_time="16:34:38" >
			</activity>
			<leg mode="car">
			</leg>
			<activity type="h" link="1116" >
			</activity>
		</plan>

	</person>

<!-- ====================================================================== -->

	<person id="1015">
		<attributes>
			<attribute name="drivelogic" class="java.lang.String" >org.matsim.contrib.smartcity.agent.CLASSDriverLogicBasic</attribute>
		</attributes>
		<plan selected="yes">
			<activity type="h" link="466" max_dur="07:51:46" >
			</activity>
			<leg mode="car">
			</leg>
			<activity type="w" link="507" start_time="07:55:39" end_time="16:35:14" >
			</activity>
			<leg mode="car">
			</leg>
			<activity type="h" link="466" >
			</activity>
		</plan>

	</person>

<!-- ====================================================================== -->

	<person id="1016">
		<attributes>
			<attribute name="drivelogic" class="java.lang.String" >org.matsim.contrib.smartcity.agent.CLASSDriverLogicBasic</attribute>
		</attributes>
		<plan selected="yes">
			<activity type="h" link="567" max_dur="08:17:03" >
			</activity>
			<leg mode="car">
			</leg>
			<activity type="w" link="594" start_time="08:20:34" end_time="18:16:58" >
			</activity>
			<leg mode="car">
			</leg>
			<activity type="h" link="567" >
			</activity>
		</plan>

	</person>

<!-- ====================================================================== -->

	<person id="1017">
		<attributes>
			<attribute name="drivelogic" class="java.lang.String" >org.matsim.contrib.smartcity.agent.CLASSDriverLogicBasic</attribute>
		</attributes>
		<plan selected="yes">
			<activity type="h" link="1096" max_dur="09:38:04" >
			</activity>
			<leg mode="car">
			</leg>
			<activity type="w" link="777" start_time="09:40:07" end_time="18:04:59" >
			</activity>
			<leg mode="car">
			</leg>
			<activity type="h" link="1096" >
			</activity>
		</plan>

	</person>

<!-- ====================================================================== -->

	<person id="1018">
		<attributes>
			<attribute name="drivelogic" class="java.lang.String" >org.matsim.contrib.smartcity.agent.CLASSDriverLogicBasic</attribute>
		</attributes>
		<plan selected="yes">
			<activity type="h" link="39" max_dur="10:46:03" >
			</activity>
			<leg mode="car">
			</leg>
			<activity type="w" link="494" start_time="10:50:00" end_time="18:45:53" >
			</activity>
			<leg mode="car">
			</leg>
			<activity type="h" link="39" >
			</activity>
		</plan>

	</person>

<!-- ====================================================================== -->

	<person id="1019">
		<attributes>
			<attribute name="drivelogic" class="java.lang.String" >org.matsim.contrib.smartcity.agent.CLASSDriverLogicBasic</attribute>
		</attributes>
		<plan selected="yes">
			<activity type="h" link="1167" max_dur="08:09:36" >
			</activity>
			<leg mode="car">
			</leg>
			<activity type="w" link="729" start_time="08:12:37" end_time="18:50:09" >
			</activity>
			<leg mode="car">
			</leg>
			<activity type="h" link="1167" >
			</activity>
		</plan>

	</person>

<!-- ====================================================================== -->

	<person id="102">
		<attributes>
			<attribute name="drivelogic" class="java.lang.String" >org.matsim.contrib.smartcity.agent.CLASSDriverLogicBasic</attribute>
		</attributes>
		<plan selected="yes">
			<activity type="h" link="869" max_dur="10:24:50" >
			</activity>
			<leg mode="car">
			</leg>
			<activity type="w" link="166" start_time="10:28:27" end_time="15:26:34" >
			</activity>
			<leg mode="car">
			</leg>
			<activity type="h" link="869" >
			</activity>
		</plan>

	</person>

<!-- ====================================================================== -->

	<person id="1020">
		<attributes>
			<attribute name="drivelogic" class="java.lang.String" >org.matsim.contrib.smartcity.agent.CLASSDriverLogicBasic</attribute>
		</attributes>
		<plan selected="yes">
			<activity type="h" link="437" max_dur="09:13:58" >
			</activity>
			<leg mode="car">
			</leg>
			<activity type="w" link="57" start_time="09:15:24" end_time="17:18:40" >
			</activity>
			<leg mode="car">
			</leg>
			<activity type="h" link="437" >
			</activity>
		</plan>

	</person>

<!-- ====================================================================== -->

	<person id="1021">
		<attributes>
			<attribute name="drivelogic" class="java.lang.String" >org.matsim.contrib.smartcity.agent.CLASSDriverLogicBasic</attribute>
		</attributes>
		<plan selected="yes">
			<activity type="h" link="196" max_dur="08:50:39" >
			</activity>
			<leg mode="car">
			</leg>
			<activity type="w" link="397" start_time="08:53:08" end_time="17:40:38" >
			</activity>
			<leg mode="car">
			</leg>
			<activity type="h" link="196" >
			</activity>
		</plan>

	</person>

<!-- ====================================================================== -->

	<person id="1022">
		<attributes>
			<attribute name="drivelogic" class="java.lang.String" >org.matsim.contrib.smartcity.agent.CLASSDriverLogicBasic</attribute>
		</attributes>
		<plan selected="yes">
			<activity type="h" link="739" max_dur="09:15:20" >
			</activity>
			<leg mode="car">
			</leg>
			<activity type="w" link="907" start_time="09:17:00" end_time="17:34:24" >
			</activity>
			<leg mode="car">
			</leg>
			<activity type="h" link="739" >
			</activity>
		</plan>

	</person>

<!-- ====================================================================== -->

	<person id="1023">
		<attributes>
			<attribute name="drivelogic" class="java.lang.String" >org.matsim.contrib.smartcity.agent.CLASSDriverLogicBasic</attribute>
		</attributes>
		<plan selected="yes">
			<activity type="h" link="484" max_dur="09:32:35" >
			</activity>
			<leg mode="car">
			</leg>
			<activity type="w" link="246" start_time="09:35:25" end_time="16:40:17" >
			</activity>
			<leg mode="car">
			</leg>
			<activity type="h" link="484" >
			</activity>
		</plan>

	</person>

<!-- ====================================================================== -->

	<person id="1024">
		<attributes>
			<attribute name="drivelogic" class="java.lang.String" >org.matsim.contrib.smartcity.agent.CLASSDriverLogicBasic</attribute>
		</attributes>
		<plan selected="yes">
			<activity type="h" link="544" max_dur="08:33:49" >
			</activity>
			<leg mode="car">
			</leg>
			<activity type="w" link="767" start_time="08:35:09" end_time="19:32:10" >
			</activity>
			<leg mode="car">
			</leg>
			<activity type="h" link="544" >
			</activity>
		</plan>

	</person>

<!-- ====================================================================== -->

	<person id="1025">
		<attributes>
			<attribute name="drivelogic" class="java.lang.String" >org.matsim.contrib.smartcity.agent.CLASSDriverLogicBasic</attribute>
		</attributes>
		<plan selected="yes">
			<activity type="h" link="100" max_dur="07:16:30" >
			</activity>
			<leg mode="car">
			</leg>
			<activity type="w" link="470" start_time="07:17:40" end_time="18:34:53" >
			</activity>
			<leg mode="car">
			</leg>
			<activity type="h" link="100" >
			</activity>
		</plan>

	</person>

<!-- ====================================================================== -->

	<person id="1026">
		<attributes>
			<attribute name="drivelogic" class="java.lang.String" >org.matsim.contrib.smartcity.agent.CLASSDriverLogicBasic</attribute>
		</attributes>
		<plan selected="yes">
			<activity type="h" link="1203" max_dur="07:44:57" >
			</activity>
			<leg mode="car">
			</leg>
			<activity type="w" link="91" start_time="07:46:00" end_time="17:26:11" >
			</activity>
			<leg mode="car">
			</leg>
			<activity type="h" link="1203" >
			</activity>
		</plan>

	</person>

<!-- ====================================================================== -->

	<person id="1027">
		<attributes>
			<attribute name="drivelogic" class="java.lang.String" >org.matsim.contrib.smartcity.agent.CLASSDriverLogicBasic</attribute>
		</attributes>
		<plan selected="yes">
			<activity type="h" link="867" max_dur="07:10:04" >
			</activity>
			<leg mode="car">
			</leg>
			<activity type="w" link="221" start_time="07:12:47" end_time="18:12:50" >
			</activity>
			<leg mode="car">
			</leg>
			<activity type="h" link="867" >
			</activity>
		</plan>

	</person>

<!-- ====================================================================== -->

	<person id="1028">
		<attributes>
			<attribute name="drivelogic" class="java.lang.String" >org.matsim.contrib.smartcity.agent.CLASSDriverLogicBasic</attribute>
		</attributes>
		<plan selected="yes">
			<activity type="h" link="594" max_dur="09:59:53" >
			</activity>
			<leg mode="car">
			</leg>
			<activity type="w" link="1165" start_time="10:02:09" end_time="18:00:16" >
			</activity>
			<leg mode="car">
			</leg>
			<activity type="h" link="594" >
			</activity>
		</plan>

	</person>

<!-- ====================================================================== -->

	<person id="1029">
		<attributes>
			<attribute name="drivelogic" class="java.lang.String" >org.matsim.contrib.smartcity.agent.CLASSDriverLogicBasic</attribute>
		</attributes>
		<plan selected="yes">
			<activity type="h" link="745" max_dur="08:17:39" >
			</activity>
			<leg mode="car">
			</leg>
			<activity type="w" link="430" start_time="08:22:21" end_time="19:11:24" >
			</activity>
			<leg mode="car">
			</leg>
			<activity type="h" link="745" >
			</activity>
		</plan>

	</person>

<!-- ====================================================================== -->

	<person id="103">
		<attributes>
			<attribute name="drivelogic" class="java.lang.String" >org.matsim.contrib.smartcity.agent.CLASSDriverLogicBasic</attribute>
		</attributes>
		<plan selected="yes">
			<activity type="h" link="168" max_dur="08:10:18" >
			</activity>
			<leg mode="car">
			</leg>
			<activity type="w" link="756" start_time="08:15:41" end_time="17:39:00" >
			</activity>
			<leg mode="car">
			</leg>
			<activity type="h" link="168" >
			</activity>
		</plan>

	</person>

<!-- ====================================================================== -->

	<person id="1030">
		<attributes>
			<attribute name="drivelogic" class="java.lang.String" >org.matsim.contrib.smartcity.agent.CLASSDriverLogicBasic</attribute>
		</attributes>
		<plan selected="yes">
			<activity type="h" link="812" max_dur="08:24:46" >
			</activity>
			<leg mode="car">
			</leg>
			<activity type="w" link="1025" start_time="08:27:28" end_time="17:58:53" >
			</activity>
			<leg mode="car">
			</leg>
			<activity type="h" link="812" >
			</activity>
		</plan>

	</person>

<!-- ====================================================================== -->

	<person id="1031">
		<attributes>
			<attribute name="drivelogic" class="java.lang.String" >org.matsim.contrib.smartcity.agent.CLASSDriverLogicBasic</attribute>
		</attributes>
		<plan selected="yes">
			<activity type="h" link="724" max_dur="07:28:11" >
			</activity>
			<leg mode="car">
			</leg>
			<activity type="w" link="940" start_time="07:31:04" end_time="16:35:38" >
			</activity>
			<leg mode="car">
			</leg>
			<activity type="h" link="724" >
			</activity>
		</plan>

	</person>

<!-- ====================================================================== -->

	<person id="1032">
		<attributes>
			<attribute name="drivelogic" class="java.lang.String" >org.matsim.contrib.smartcity.agent.CLASSDriverLogicBasic</attribute>
		</attributes>
		<plan selected="yes">
			<activity type="h" link="1048" max_dur="09:03:36" >
			</activity>
			<leg mode="car">
			</leg>
			<activity type="w" link="650" start_time="09:05:42" end_time="17:50:14" >
			</activity>
			<leg mode="car">
			</leg>
			<activity type="h" link="1048" >
			</activity>
		</plan>

	</person>

<!-- ====================================================================== -->

	<person id="1033">
		<attributes>
			<attribute name="drivelogic" class="java.lang.String" >org.matsim.contrib.smartcity.agent.CLASSDriverLogicBasic</attribute>
		</attributes>
		<plan selected="yes">
			<activity type="h" link="668" max_dur="07:42:55" >
			</activity>
			<leg mode="car">
			</leg>
			<activity type="w" link="1041" start_time="07:43:49" end_time="19:12:21" >
			</activity>
			<leg mode="car">
			</leg>
			<activity type="h" link="668" >
			</activity>
		</plan>

	</person>

<!-- ====================================================================== -->

	<person id="1034">
		<attributes>
			<attribute name="drivelogic" class="java.lang.String" >org.matsim.contrib.smartcity.agent.CLASSDriverLogicBasic</attribute>
		</attributes>
		<plan selected="yes">
			<activity type="h" link="754" max_dur="08:55:41" >
			</activity>
			<leg mode="car">
			</leg>
			<activity type="w" link="1128" start_time="08:59:05" end_time="16:55:21" >
			</activity>
			<leg mode="car">
			</leg>
			<activity type="h" link="754" >
			</activity>
		</plan>

	</person>

<!-- ====================================================================== -->

	<person id="1035">
		<attributes>
			<attribute name="drivelogic" class="java.lang.String" >org.matsim.contrib.smartcity.agent.CLASSDriverLogicBasic</attribute>
		</attributes>
		<plan selected="yes">
			<activity type="h" link="374" max_dur="07:53:46" >
			</activity>
			<leg mode="car">
			</leg>
			<activity type="w" link="1049" start_time="07:56:17" end_time="19:08:50" >
			</activity>
			<leg mode="car">
			</leg>
			<activity type="h" link="374" >
			</activity>
		</plan>

	</person>

<!-- ====================================================================== -->

	<person id="1036">
		<attributes>
			<attribute name="drivelogic" class="java.lang.String" >org.matsim.contrib.smartcity.agent.CLASSDriverLogicBasic</attribute>
		</attributes>
		<plan selected="yes">
			<activity type="h" link="1179" max_dur="10:21:41" >
			</activity>
			<leg mode="car">
			</leg>
			<activity type="w" link="1028" start_time="10:23:48" end_time="16:45:54" >
			</activity>
			<leg mode="car">
			</leg>
			<activity type="h" link="1179" >
			</activity>
		</plan>

	</person>

<!-- ====================================================================== -->

	<person id="1037">
		<attributes>
			<attribute name="drivelogic" class="java.lang.String" >org.matsim.contrib.smartcity.agent.CLASSDriverLogicBasic</attribute>
		</attributes>
		<plan selected="yes">
			<activity type="h" link="574" max_dur="09:08:00" >
			</activity>
			<leg mode="car">
			</leg>
			<activity type="w" link="1079" start_time="09:09:26" end_time="17:31:35" >
			</activity>
			<leg mode="car">
			</leg>
			<activity type="h" link="574" >
			</activity>
		</plan>

	</person>

<!-- ====================================================================== -->

	<person id="1038">
		<attributes>
			<attribute name="drivelogic" class="java.lang.String" >org.matsim.contrib.smartcity.agent.CLASSDriverLogicBasic</attribute>
		</attributes>
		<plan selected="yes">
			<activity type="h" link="1135" max_dur="09:09:48" >
			</activity>
			<leg mode="car">
			</leg>
			<activity type="w" link="472" start_time="09:15:44" end_time="18:47:02" >
			</activity>
			<leg mode="car">
			</leg>
			<activity type="h" link="1135" >
			</activity>
		</plan>

	</person>

<!-- ====================================================================== -->

	<person id="1039">
		<attributes>
			<attribute name="drivelogic" class="java.lang.String" >org.matsim.contrib.smartcity.agent.CLASSDriverLogicBasic</attribute>
		</attributes>
		<plan selected="yes">
			<activity type="h" link="39" max_dur="08:38:24" >
			</activity>
			<leg mode="car">
			</leg>
			<activity type="w" link="187" start_time="08:43:00" end_time="17:59:11" >
			</activity>
			<leg mode="car">
			</leg>
			<activity type="h" link="39" >
			</activity>
		</plan>

	</person>

<!-- ====================================================================== -->

	<person id="104">
		<attributes>
			<attribute name="drivelogic" class="java.lang.String" >org.matsim.contrib.smartcity.agent.CLASSDriverLogicBasic</attribute>
		</attributes>
		<plan selected="yes">
			<activity type="h" link="1103" max_dur="08:03:00" >
			</activity>
			<leg mode="car">
			</leg>
			<activity type="w" link="1099" start_time="08:06:01" end_time="17:29:50" >
			</activity>
			<leg mode="car">
			</leg>
			<activity type="h" link="1103" >
			</activity>
		</plan>

	</person>

<!-- ====================================================================== -->

	<person id="1040">
		<attributes>
			<attribute name="drivelogic" class="java.lang.String" >org.matsim.contrib.smartcity.agent.CLASSDriverLogicBasic</attribute>
		</attributes>
		<plan selected="yes">
			<activity type="h" link="724" max_dur="10:02:11" >
			</activity>
			<leg mode="car">
			</leg>
			<activity type="w" link="87" start_time="10:04:50" end_time="15:47:22" >
			</activity>
			<leg mode="car">
			</leg>
			<activity type="h" link="724" >
			</activity>
		</plan>

	</person>

<!-- ====================================================================== -->

	<person id="1041">
		<attributes>
			<attribute name="drivelogic" class="java.lang.String" >org.matsim.contrib.smartcity.agent.CLASSDriverLogicBasic</attribute>
		</attributes>
		<plan selected="yes">
			<activity type="h" link="827" max_dur="08:17:37" >
			</activity>
			<leg mode="car">
			</leg>
			<activity type="w" link="1021" start_time="08:19:56" end_time="18:54:47" >
			</activity>
			<leg mode="car">
			</leg>
			<activity type="h" link="827" >
			</activity>
		</plan>

	</person>

<!-- ====================================================================== -->

	<person id="1042">
		<attributes>
			<attribute name="drivelogic" class="java.lang.String" >org.matsim.contrib.smartcity.agent.CLASSDriverLogicBasic</attribute>
		</attributes>
		<plan selected="yes">
			<activity type="h" link="1062" max_dur="07:21:54" >
			</activity>
			<leg mode="car">
			</leg>
			<activity type="w" link="671" start_time="07:22:42" end_time="16:28:35" >
			</activity>
			<leg mode="car">
			</leg>
			<activity type="h" link="1062" >
			</activity>
		</plan>

	</person>

<!-- ====================================================================== -->

	<person id="1043">
		<attributes>
			<attribute name="drivelogic" class="java.lang.String" >org.matsim.contrib.smartcity.agent.CLASSDriverLogicBasic</attribute>
		</attributes>
		<plan selected="yes">
			<activity type="h" link="141" max_dur="06:51:39" >
			</activity>
			<leg mode="car">
			</leg>