<routes xmlns:xsi="http://www.w3.org/2001/XMLSchema-instance" xsi:noNamespaceSchemaLocation="http://sumo.dlr.de/xsd/routes_file.xsd">
  <vType id="car" vClass="passenger" />
  <vType id="bicycle" vClass="bicycle" />
  <route edges="1688 1686 1684 1682 1680 1678 1676 1674 2068 2066 2064 2062 2060 2058 2056 739 740 741 742 743 744 745 746 747 748" id="r_0" />
  <route edges="346 238 240 242 244 246 248 1540 1538 1536 1534 1532 1530 1528 1526 269 267 265 263 261 259 257 255 552 553 554 555 556 1385 1387 1313 1315 1317 1319 1321 1323 1325 1327 1329 1331 1333 1335 1337 565 567 569 571 1836 1837 1490 1491 1492 469 470 1011 1096 1097" id="r_1" />
  <route edges="595 596 594 1532 1530 1528 1526 269 267 265 263 261 259 257 255 552 553 554 555 556 557 558 559 560 561 562 563 564 546 616 614 612 610 608 606 604 2046 2044 2042 1374 1375 1376 1377 1378 1379 1380 1361 1362 1363 1364 1365 1366 913 716 717 718 719 720 721 722 723 724 725 1302 1298" id="r_2" />
  <route edges="1673 1675 1677 1679 1681 1683 1685 1687 1689 1691 1693 1695 1697 1699 1701 1703 1705 1707 1709 1711 1713 1715 1717 1719 1721 1723 1725 1727 1729 1731 1733 1735 1737 1739 1741 1743 1745 1747 1749 1751 1753 1755 1757 1759 1761 1763 1765 1767 1768 1766 1764 1762 1760 1758 1756 1754 1752 1750 1748 1746 1744 1742 1740 1738 1736 1734 1732 1730 1728 1726 1724 1722 1720 1718 1716 1714 1712 1710 1708 1706 1704 1702 1700 1698 1696 1694 1692 1690 1688 1686 1684 1682 1680 1678 1676 1674 2069 2071 2073 2075 2077 1893 1635 1637 1639 1641 1643 1645 1647 1649 1651 1653 1655 429 1778 1776 1774 1772 1770 237 235 233 28 26 24 22 20 18 16 14 12 10 8 1869 1867 205 203 217 213 215 1917 1918 1919 1920 1921 1928 1930 1932 1934 1936 1938 1940" id="r_3" />
  <route edges="12 10 9 11 13 15 17 19 21 23 25 27 232 234 236 1769 1771 1773 1775 1777 428 1656 1654 1652 1650 1648 1646 1644 1642 1640 1638 1636 1894 2078 2076 2074 2072 2070 804" id="r_4" />
  <route edges="918 919 920 921 922 923 912 1367 1368 1369 1370 1371 1372 1373 2041 2043 2045 603 605 607 609 611 613 615 547 548 549 550 551 254 256 258 260 262 264 266 268 1525 1527 1529 1531 1533 1535 1537 1539 1541 362 364 366 368 370 372 798 910 812 814 816 818 820 822 824 826 828 830 832 834 836 838 840 842 844 846 848 850 852 854 856 858 860 862 864 866 868 870 872 874" id="r_5" />
  <route edges="542 543 544 1482 1483 1484 1485 1486 1487 1488 1489 1490 1491 1492 1617 1618 1619 1620 1601 1602 1603 1604 1605 1606 1607 1608 1609 481 482 2187 2188 2189 2190 2191 2192 2182 590 591 592 1575 1576 1577 1578 1579 1580 765 766 767 768 299 771 772 773 774 1564 1565 1566 1567 1568 1569 1570 585 586 587 588 589 430 431 432 433 434 129 127 125 124 126" id="r_6" />
  <route edges="1192 1191 158 160 162 436 437 438 439 1561 1562 1563 1482 1483 1484 496 497 498 572 570 568 566 1339 1341 1343 1345 1347 1349 1351 1353" id="r_7" />
  <route edges="453 454 455 456 457 458 459 460 461 462 514 512 510 508 1294 1292 1290 1288 1286 1284 603 605 607 609 611 613 615 547 548 549 550 551 254 256 258 260 262 264 266 268 1525 1527 1529 1531 1533 1535 1537 1539 249 247 245 243 241 239 332 334 335" id="r_8" />
  <route edges="1594 1592 1590 1381 1382 1383 1384 1564 1565 1566 1567 1568" id="r_9" />
  <trip id="1910_0" depart="16521.00" from="1688" to="748" type="car" />
    <trip id="172_0" depart="21146.00" from="346" to="1097" type="car" />
    <trip id="2054_0" depart="21708.00" from="595" to="1298" type="car" />
    <trip id="1657_0" depart="21779.00" from="1673" to="1940" type="car" />
    <trip id="619_0" depart="22259.00" from="12" to="804" type="car" />
    <trip id="741_0" depart="22372.00" from="918" to="874" type="car" />
    <trip id="330_0" depart="22410.00" from="542" to="126" type="car" />
    <trip id="2217_0" depart="22617.00" from="1192" to="1353" type="car" />
    <trip id="502_0" depart="22767.00" from="453" to="335" type="car" />
    <trip id="1953_0" depart="22796.00" from="1594" to="1568" type="car" />
    <trip id="375_0" depart="22815.00" from="1993" to="409" type="car" />
    <trip id="2031_0" depart="22900.00" from="638" to="530" type="car" />
    <trip id="1197_0" depart="22999.00" from="918" to="1097" type="car" />
    <trip id="1589_0" depart="23350.00" from="1007" to="1822" type="car" />
    <trip id="2016_0" depart="23366.00" from="1163" to="1568" type="car" />
    <trip id="1104_0" depart="23475.00" from="258" to="1820" type="car" />
    <trip id="1273_0" depart="23563.00" from="395" to="1497" type="car" />
    <trip id="1311_0" depart="23607.00" from="1850" to="411" type="car" />
    <trip id="1191_0" depart="23713.00" from="1437" to="476" type="car" />
    <trip id="1917_0" depart="23714.00" from="242" to="1334" type="car" />
    <trip id="68_0" depart="23749.00" from="1022" to="1481" type="car" />
    <trip id="624_0" depart="23803.00" from="1802" to="1538" type="car" />
    <trip id="1926_0" depart="23813.00" from="367" to="2046" type="car" />
    <trip id="1724_0" depart="23893.00" from="1674" to="1042" type="car" />
    <trip id="2006_0" depart="23903.00" from="1033" to="1495" type="car" />
    <trip id="998_0" depart="23980.00" from="1577" to="1110" type="car" />
    <trip id="1161_0" depart="24002.00" from="1308" to="833" type="car" />
    <trip id="857_0" depart="24032.00" from="2151" to="1125" type="car" />
    <trip id="1214_0" depart="24378.00" from="329" to="652" type="car" />
    <trip id="1206_0" depart="24418.00" from="1176" to="1594" type="car" />
    <trip id="166_0" depart="24432.00" from="857" to="1785" type="car" />
    <trip id="1747_0" depart="24526.00" from="954" to="294" type="car" />
    <trip id="1756_0" depart="24589.00" from="2199" to="1727" type="car" />
    <trip id="889_0" depart="24623.00" from="2193" to="1405" type="car" />
    <trip id="2214_0" depart="24655.00" from="1907" to="63" type="car" />
    <trip id="2086_0" depart="24751.00" from="164" to="1259" type="car" />
    <trip id="1167_0" depart="24769.00" from="1811" to="427" type="car" />
    <trip id="1365_0" depart="24801.00" from="1666" to="1595" type="car" />
    <trip id="1663_0" depart="24868.00" from="4" to="1876" type="car" />
    <trip id="240_0" depart="24898.00" from="246" to="1238" type="car" />
    <trip id="2042_0" depart="24913.00" from="1036" to="1425" type="car" />
    <trip id="180_0" depart="25036.00" from="747" to="1070" type="car" />
    <trip id="1054_0" depart="25051.00" from="731" to="417" type="car" />
    <trip id="948_0" depart="25054.00" from="1666" to="1437" type="car" />
    <trip id="224_0" depart="25076.00" from="264" to="1204" type="car" />
    <trip id="503_0" depart="25104.00" from="1363" to="1821" type="car" />
    <trip id="1434_0" depart="25119.00" from="1273" to="1073" type="car" />
    <trip id="244_0" depart="25130.00" from="1365" to="241" type="car" />
    <trip id="1909_0" depart="25133.00" from="441" to="268" type="car" />
    <trip id="1856_0" depart="25248.00" from="1947" to="2107" type="car" />
    <trip id="631_0" depart="25316.00" from="1808" to="1046" type="car" />
    <trip id="960_0" depart="25318.00" from="1767" to="729" type="car" />
    <trip id="1058_0" depart="25366.00" from="1821" to="258" type="car" />
    <trip id="1516_0" depart="25367.00" from="620" to="757" type="car" />
    <trip id="1796_0" depart="25374.00" from="405" to="1013" type="car" />
    <trip id="1027_0" depart="25376.00" from="1361" to="1363" type="car" />
    <trip id="428_0" depart="25430.00" from="1718" to="27" type="car" />
    <trip id="483_0" depart="25442.00" from="1037" to="365" type="car" />
    <trip id="795_0" depart="25462.00" from="1333" to="1096" type="car" />
    <trip id="1069_0" depart="25472.00" from="711" to="1684" type="car" />
    <trip id="197_0" depart="25476.00" from="1046" to="409" type="car" />
    <trip id="1616_0" depart="25490.00" from="1030" to="832" type="car" />
    <trip id="2069_0" depart="25491.00" from="436" to="1430" type="car" />
    <trip id="579_0" depart="25529.00" from="882" to="1366" type="car" />
    <trip id="2180_0" depart="25549.00" from="1430" to="369" type="car" />
    <trip id="1746_0" depart="25550.00" from="1217" to="1185" type="car" />
    <trip id="542_0" depart="25554.00" from="1007" to="1836" type="car" />
    <trip id="1186_0" depart="25587.00" from="1840" to="727" type="car" />
    <trip id="351_0" depart="25623.00" from="663" to="702" type="car" />
    <trip id="1661_0" depart="25670.00" from="1676" to="2178" type="car" />
    <trip id="1664_0" depart="25675.00" from="584" to="1491" type="car" />
    <trip id="2025_0" depart="25690.00" from="922" to="1878" type="car" />
    <trip id="1031_0" depart="25691.00" from="366" to="258" type="car" />
    <trip id="1006_0" depart="25733.00" from="1088" to="565" type="car" />
    <trip id="219_0" depart="25735.00" from="759" to="1739" type="car" />
    <trip id="305_0" depart="25739.00" from="1863" to="1590" type="car" />
    <trip id="2071_0" depart="25777.00" from="1684" to="83" type="car" />
    <trip id="357_0" depart="25792.00" from="222" to="223" type="car" />
    <trip id="748_0" depart="25812.00" from="659" to="1185" type="car" />
    <trip id="1219_0" depart="25815.00" from="1073" to="1346" type="car" />
    <trip id="1848_0" depart="25817.00" from="1799" to="870" type="car" />
    <trip id="1851_0" depart="25821.00" from="670" to="1642" type="car" />
    <trip id="680_0" depart="25840.00" from="733" to="1945" type="car" />
    <trip id="1280_0" depart="25847.00" from="1180" to="255" type="car" />
    <trip id="1392_0" depart="25855.00" from="1337" to="1833" type="car" />
    <trip id="682_0" depart="25856.00" from="582" to="1475" type="car" />
    <trip id="1623_0" depart="25871.00" from="377" to="48" type="car" />
    <trip id="967_0" depart="25898.00" from="415" to="1964" type="car" />
    <trip id="1541_0" depart="25943.00" from="1777" to="683" type="car" />
    <trip id="812_0" depart="25945.00" from="2009" to="26" type="car" />
    <trip id="2239_0" depart="25960.00" from="494" to="842" type="car" />
    <trip id="1119_0" depart="25977.00" from="117" to="1658" type="car" />
    <trip id="737_0" depart="25996.00" from="347" to="1154" type="car" />
    <trip id="392_0" depart="26008.00" from="636" to="696" type="car" />
    <trip id="2181_0" depart="26012.00" from="568" to="1378" type="car" />
    <trip id="66_0" depart="26025.00" from="932" to="1887" type="car" />
    <trip id="989_0" depart="26027.00" from="348" to="250" type="car" />
    <trip id="1385_0" depart="26048.00" from="1173" to="921" type="car" />
    <trip id="1025_0" depart="26050.00" from="1192" to="1099" type="car" />
    <trip id="1931_0" depart="26090.00" from="2011" to="525" type="car" />
    <trip id="1088_0" depart="26106.00" from="160" to="508" type="car" />
    <trip id="1765_0" depart="26110.00" from="1462" to="514" type="car" />
    <trip id="1964_0" depart="26172.00" from="1790" to="603" type="car" />
    <trip id="1836_0" depart="26176.00" from="821" to="952" type="car" />
    <trip id="1774_0" depart="26201.00" from="507" to="609" type="car" />
    <trip id="1200_0" depart="26229.00" from="737" to="409" type="car" />
    <trip id="43_0" depart="26239.00" from="1280" to="28" type="car" />
    <trip id="2061_0" depart="26263.00" from="430" to="1273" type="car" />
    <trip id="2003_0" depart="26291.00" from="1822" to="1436" type="car" />
    <trip id="616_0" depart="26297.00" from="396" to="514" type="car" />
    <trip id="1443_0" depart="26323.00" from="683" to="1405" type="car" />
    <trip id="669_0" depart="26329.00" from="97" to="246" type="car" />
    <trip id="965_0" depart="26330.00" from="406" to="1507" type="car" />
    <trip id="620_0" depart="26336.00" from="371" to="1659" type="car" />
    <trip id="1935_0" depart="26337.00" from="309" to="923" type="car" />
    <trip id="672_0" depart="26339.00" from="183" to="935" type="car" />
    <trip id="599_0" depart="26346.00" from="1794" to="647" type="car" />
    <trip id="2178_0" depart="26370.00" from="838" to="93" type="car" />
    <trip id="1778_0" depart="26385.00" from="159" to="208" type="car" />
    <trip id="2000_0" depart="26387.00" from="425" to="922" type="car" />
    <trip id="2033_0" depart="26449.00" from="1978" to="1975" type="car" />
    <trip id="1530_0" depart="26469.00" from="167" to="416" type="car" />
    <trip id="746_0" depart="26474.00" from="1865" to="900" type="car" />
    <trip id="539_0" depart="26490.00" from="793" to="2093" type="car" />
    <trip id="1569_0" depart="26494.00" from="578" to="886" type="car" />
    <trip id="855_0" depart="26499.00" from="990" to="1940" type="car" />
    <trip id="352_0" depart="26504.00" from="1140" to="101" type="car" />
    <trip id="1287_0" depart="26544.00" from="743" to="2137" type="car" />
    <trip id="1318_0" depart="26545.00" from="2161" to="291" type="car" />
    <trip id="1632_0" depart="26549.00" from="1424" to="563" type="car" />
    <trip id="1335_0" depart="26557.00" from="2087" to="893" type="car" />
    <trip id="520_0" depart="26564.00" from="304" to="1310" type="car" />
    <trip id="895_0" depart="26569.00" from="261" to="932" type="car" />
    <trip id="1011_0" depart="26586.00" from="2044" to="1102" type="car" />
    <trip id="104_0" depart="26597.00" from="526" to="1950" type="car" />
    <trip id="273_0" depart="26604.00" from="627" to="2003" type="car" />
    <trip id="245_0" depart="26610.00" from="1471" to="398" type="car" />
    <trip id="1906_0" depart="26623.00" from="646" to="1810" type="car" />
    <trip id="1697_0" depart="26661.00" from="454" to="324" type="car" />
    <trip id="863_0" depart="26663.00" from="2035" to="354" type="car" />
    <trip id="150_0" depart="26670.00" from="671" to="1299" type="car" />
    <trip id="256_0" depart="26676.00" from="388" to="1724" type="car" />
    <trip id="446_0" depart="26696.00" from="1948" to="15" type="car" />
    <trip id="1783_0" depart="26709.00" from="2197" to="1733" type="car" />
    <trip id="2202_0" depart="26711.00" from="723" to="1017" type="car" />
    <trip id="1346_0" depart="26713.00" from="1664" to="1834" type="car" />
    <trip id="2240_0" depart="26714.00" from="1867" to="713" type="car" />
    <trip id="1007_0" depart="26740.00" from="1876" to="1098" type="car" />
    <trip id="1135_0" depart="26749.00" from="705" to="1954" type="car" />
    <trip id="2049_0" depart="26782.00" from="1563" to="1488" type="car" />
    <trip id="1893_0" depart="26787.00" from="1205" to="36" type="car" />
    <trip id="85_0" depart="26813.00" from="2012" to="733" type="car" />
    <trip id="872_0" depart="26816.00" from="796" to="341" type="car" />
    <trip id="2177_0" depart="26819.00" from="1349" to="1355" type="car" />
    <trip id="87_0" depart="26831.00" from="960" to="308" type="car" />
    <trip id="959_0" depart="26847.00" from="1877" to="1144" type="car" />
    <trip id="1884_0" depart="26886.00" from="1282" to="745" type="car" />
    <trip id="1040_0" depart="26889.00" from="1411" to="27" type="car" />
    <trip id="127_0" depart="26890.00" from="1187" to="1671" type="car" />
    <trip id="2245_0" depart="26892.00" from="1459" to="545" type="car" />
    <trip id="570_0" depart="26899.00" from="1668" to="423" type="car" />
    <trip id="379_0" depart="26903.00" from="644" to="1065" type="car" />
    <trip id="2070_0" depart="26912.00" from="1920" to="295" type="car" />
    <trip id="1685_0" depart="26951.00" from="1202" to="265" type="car" />
    <trip id="2103_0" depart="26957.00" from="216" to="1857" type="car" />
    <trip id="1244_0" depart="26965.00" from="590" to="304" type="car" />
    <trip id="1192_0" depart="26971.00" from="1065" to="367" type="car" />
    <trip id="1655_0" depart="26975.00" from="1851" to="1581" type="car" />
    <trip id="247_0" depart="26977.00" from="2034" to="1946" type="car" />
    <trip id="1822_0" depart="26988.00" from="2099" to="1311" type="car" />
    <trip id="1102_0" depart="26994.00" from="2170" to="141" type="car" />
    <trip id="2111_0" depart="27019.00" from="1596" to="442" type="car" />
    <trip id="743_0" depart="27061.00" from="741" to="664" type="car" />
    <trip id="1582_0" depart="27084.00" from="479" to="1567" type="car" />
    <trip id="113_0" depart="27088.00" from="1723" to="203" type="car" />
    <trip id="2013_0" depart="27091.00" from="611" to="874" type="car" />
    <trip id="551_0" depart="27105.00" from="936" to="1340" type="car" />
    <trip id="725_0" depart="27171.00" from="90" to="733" type="car" />
    <trip id="2073_0" depart="27178.00" from="1626" to="493" type="car" />
    <trip id="936_0" depart="27194.00" from="812" to="1539" type="car" />
    <trip id="1506_0" depart="27198.00" from="871" to="717" type="car" />
    <trip id="1912_0" depart="27199.00" from="2196" to="378" type="car" />
    <trip id="2204_0" depart="27204.00" from="2156" to="1468" type="car" />
    <trip id="327_0" depart="27206.00" from="1781" to="207" type="car" />
    <trip id="1147_0" depart="27213.00" from="1499" to="1071" type="car" />
    <trip id="63_0" depart="27214.00" from="2092" to="1271" type="car" />
    <trip id="2108_0" depart="27272.00" from="628" to="1712" type="car" />
    <trip id="697_0" depart="27274.00" from="2008" to="1062" type="car" />
    <trip id="888_0" depart="27290.00" from="2035" to="694" type="car" />
    <trip id="437_0" depart="27310.00" from="73" to="1848" type="car" />
    <trip id="1370_0" depart="27321.00" from="606" to="866" type="car" />
    <trip id="665_0" depart="27326.00" from="1324" to="1097" type="car" />
    <trip id="1832_0" depart="27333.00" from="1684" to="1649" type="car" />
    <trip id="1176_0" depart="27358.00" from="2079" to="39" type="car" />
    <trip id="1984_0" depart="27368.00" from="783" to="1690" type="car" />
    <trip id="193_0" depart="27374.00" from="1701" to="1834" type="car" />
    <trip id="996_0" depart="27385.00" from="2108" to="1055" type="car" />
    <trip id="1446_0" depart="27393.00" from="586" to="305" type="car" />
    <trip id="1903_0" depart="27395.00" from="688" to="692" type="car" />
    <trip id="1071_0" depart="27397.00" from="4" to="1532" type="car" />
    <trip id="1269_0" depart="27397.00" from="586" to="1609" type="car" />
    <trip id="676_0" depart="27405.00" from="106" to="1968" type="car" />
    <trip id="1776_0" depart="27440.00" from="1406" to="1679" type="car" />
    <trip id="22_0" depart="27447.00" from="1348" to="899" type="car" />
    <trip id="1260_0" depart="27455.00" from="1692" to="677" type="car" />
    <trip id="2047_0" depart="27465.00" from="1302" to="1113" type="car" />
    <trip id="1358_0" depart="27524.00" from="1346" to="1870" type="car" />
    <trip id="1002_0" depart="27533.00" from="210" to="498" type="car" />
    <trip id="1374_0" depart="27533.00" from="1643" to="149" type="car" />
    <trip id="933_0" depart="27538.00" from="606" to="874" type="car" />
    <trip id="509_0" depart="27562.00" from="1217" to="859" type="car" />
    <trip id="670_0" depart="27571.00" from="1044" to="1949" type="car" />
    <trip id="2127_0" depart="27594.00" from="546" to="861" type="car" />
    <trip id="942_0" depart="27599.00" from="948" to="2149" type="car" />
    <trip id="740_0" depart="27608.00" from="1377" to="1426" type="car" />
    <trip id="1899_0" depart="27626.00" from="1015" to="1287" type="car" />
    <trip id="661_0" depart="27628.00" from="1018" to="610" type="car" />
    <trip id="1064_0" depart="27640.00" from="973" to="505" type="car" />
    <trip id="255_0" depart="27640.00" from="1125" to="1179" type="car" />
    <trip id="116_0" depart="27644.00" from="520" to="1757" type="car" />
    <trip id="790_0" depart="27653.00" from="47" to="2114" type="car" />
    <trip id="1684_0" depart="27670.00" from="1532" to="1168" type="car" />
    <trip id="174_0" depart="27671.00" from="269" to="193" type="car" />
    <trip id="545_0" depart="27673.00" from="2161" to="1806" type="car" />
    <trip id="820_0" depart="27687.00" from="122" to="1799" type="car" />
    <trip id="1290_0" depart="27691.00" from="364" to="1326" type="car" />
    <trip id="2050_0" depart="27707.00" from="199" to="1144" type="car" />
    <trip id="106_0" depart="27732.00" from="1821" to="1373" type="car" />
    <trip id="1424_0" depart="27742.00" from="662" to="375" type="car" />
    <trip id="1670_0" depart="27762.00" from="2126" to="1913" type="car" />
    <trip id="1794_0" depart="27764.00" from="1667" to="257" type="car" />
    <trip id="1717_0" depart="27789.00" from="1169" to="1668" type="car" />
    <trip id="1337_0" depart="27802.00" from="973" to="1496" type="car" />
    <trip id="1386_0" depart="27808.00" from="453" to="480" type="car" />
    <trip id="1399_0" depart="27809.00" from="577" to="1164" type="car" />
    <trip id="1813_0" depart="27815.00" from="900" to="1325" type="car" />
    <trip id="649_0" depart="27820.00" from="1038" to="2167" type="car" />
    <trip id="2115_0" depart="27821.00" from="891" to="1795" type="car" />
    <trip id="215_0" depart="27824.00" from="2120" to="25" type="car" />
    <trip id="1063_0" depart="27830.00" from="1763" to="1502" type="car" />
    <trip id="2210_0" depart="27833.00" from="669" to="760" type="car" />
    <trip id="1222_0" depart="27849.00" from="1522" to="298" type="car" />
    <trip id="666_0" depart="27852.00" from="126" to="442" type="car" />
    <trip id="319_0" depart="27853.00" from="862" to="1465" type="car" />
    <trip id="886_0" depart="27856.00" from="1798" to="276" type="car" />
    <trip id="185_0" depart="27861.00" from="524" to="2114" type="car" />
    <trip id="1332_0" depart="27864.00" from="2080" to="1944" type="car" />
    <trip id="304_0" depart="27869.00" from="1493" to="972" type="car" />
    <trip id="1042_0" depart="27878.00" from="901" to="476" type="car" />
    <trip id="1502_0" depart="27879.00" from="1896" to="232" type="car" />
    <trip id="179_0" depart="27898.00" from="917" to="721" type="car" />
    <trip id="2197_0" depart="27898.00" from="860" to="1332" type="car" />
    <trip id="2200_0" depart="27901.00" from="1876" to="507" type="car" />
    <trip id="2179_0" depart="27913.00" from="369" to="856" type="car" />
    <trip id="2235_0" depart="27925.00" from="1276" to="549" type="car" />
    <trip id="717_0" depart="27932.00" from="1669" to="1671" type="car" />
    <trip id="2160_0" depart="27959.00" from="431" to="1827" type="car" />
    <trip id="2055_0" depart="27970.00" from="507" to="913" type="car" />
    <trip id="81_0" depart="27970.00" from="291" to="1216" type="car" />
    <trip id="1960_0" depart="27988.00" from="378" to="235" type="car" />
    <trip id="395_0" depart="27992.00" from="1954" to="689" type="car" />
    <trip id="2056_0" depart="28002.00" from="231" to="1742" type="car" />
    <trip id="854_0" depart="28018.00" from="410" to="55" type="car" />
    <trip id="1811_0" depart="28026.00" from="1817" to="1599" type="car" />
    <trip id="2187_0" depart="28027.00" from="795" to="1618" type="car" />
    <trip id="750_0" depart="28046.00" from="1884" to="1592" type="car" />
    <trip id="75_0" depart="28056.00" from="1354" to="963" type="car" />
    <trip id="584_0" depart="28068.00" from="838" to="1217" type="car" />
    <trip id="1090_0" depart="28081.00" from="1858" to="1866" type="car" />
    <trip id="735_0" depart="28084.00" from="1387" to="909" type="car" />
    <trip id="125_0" depart="28091.00" from="1090" to="1471" type="car" />
    <trip id="1107_0" depart="28107.00" from="2176" to="758" type="car" />
    <trip id="221_0" depart="28115.00" from="1064" to="582" type="car" />
    <trip id="1481_0" depart="28116.00" from="1856" to="2051" type="car" />
    <trip id="831_0" depart="28118.00" from="2077" to="296" type="car" />
    <trip id="1736_0" depart="28121.00" from="262" to="1324" type="car" />
    <trip id="537_0" depart="28140.00" from="1718" to="70" type="car" />
    <trip id="1587_0" depart="28142.00" from="1729" to="1392" type="car" />
    <trip id="758_0" depart="28162.00" from="1275" to="1096" type="car" />
    <trip id="1712_0" depart="28167.00" from="1534" to="547" type="car" />
    <trip id="1387_0" depart="28168.00" from="1347" to="1446" type="car" />
    <trip id="1295_0" depart="28171.00" from="2063" to="618" type="car" />
    <trip id="1799_0" depart="28171.00" from="202" to="1512" type="car" />
    <trip id="321_0" depart="28176.00" from="1648" to="48" type="car" />
    <trip id="76_0" depart="28185.00" from="724" to="849" type="car" />
    <trip id="211_0" depart="28190.00" from="499" to="912" type="car" />
    <trip id="38_0" depart="28193.00" from="583" to="400" type="car" />
    <trip id="1301_0" depart="28218.00" from="1666" to="1603" type="car" />
    <trip id="688_0" depart="28223.00" from="732" to="220" type="car" />
    <trip id="1881_0" depart="28231.00" from="1856" to="676" type="car" />
    <trip id="2223_0" depart="28243.00" from="2066" to="1061" type="car" />
    <trip id="1987_0" depart="28261.00" from="652" to="886" type="car" />
    <trip id="1087_0" depart="28265.00" from="298" to="1914" type="car" />
    <trip id="511_0" depart="28267.00" from="1434" to="882" type="car" />
    <trip id="744_0" depart="28283.00" from="1276" to="1479" type="car" />
    <trip id="152_0" depart="28292.00" from="913" to="792" type="car" />
    <trip id="1550_0" depart="28293.00" from="192" to="896" type="car" />
    <trip id="132_0" depart="28321.00" from="1848" to="809" type="car" />
    <trip id="2193_0" depart="28328.00" from="1701" to="1200" type="car" />
    <trip id="928_0" depart="28332.00" from="605" to="1793" type="car" />
    <trip id="1713_0" depart="28338.00" from="283" to="1610" type="car" />
    <trip id="1970_0" depart="28340.00" from="153" to="1046" type="car" />
    <trip id="543_0" depart="28340.00" from="892" to="1497" type="car" />
    <trip id="2125_0" depart="28350.00" from="1896" to="2114" type="car" />
    <trip id="2196_0" depart="28350.00" from="1831" to="655" type="car" />
    <trip id="1291_0" depart="28373.00" from="1446" to="480" type="car" />
    <trip id="677_0" depart="28381.00" from="192" to="1384" type="car" />
    <trip id="1049_0" depart="28411.00" from="1489" to="1529" type="car" />
    <trip id="124_0" depart="28413.00" from="658" to="1126" type="car" />
    <trip id="1766_0" depart="28418.00" from="2053" to="1196" type="car" />
    <trip id="1114_0" depart="28419.00" from="1309" to="1424" type="car" />
    <trip id="487_0" depart="28421.00" from="110" to="380" type="car" />
    <trip id="902_0" depart="28428.00" from="1933" to="2168" type="car" />
    <trip id="1725_0" depart="28435.00" from="1774" to="1045" type="car" />
    <trip id="2131_0" depart="28436.00" from="225" to="1727" type="car" />
    <trip id="803_0" depart="28441.00" from="844" to="875" type="car" />
    <trip id="67_0" depart="28447.00" from="120" to="1579" type="car" />
    <trip id="303_0" depart="28468.00" from="575" to="281" type="car" />
    <trip id="1523_0" depart="28479.00" from="1169" to="1345" type="car" />
    <trip id="217_0" depart="28488.00" from="1468" to="574" type="car" />
    <trip id="349_0" depart="28493.00" from="269" to="893" type="car" />
    <trip id="1741_0" depart="28500.00" from="1306" to="65" type="car" />
    <trip id="1995_0" depart="28503.00" from="1169" to="1473" type="car" />
    <trip id="1676_0" depart="28511.00" from="1167" to="722" type="car" />
    <trip id="710_0" depart="28513.00" from="642" to="1986" type="car" />
    <trip id="2145_0" depart="28515.00" from="1793" to="612" type="car" />
    <trip id="27_0" depart="28522.00" from="425" to="834" type="car" />
    <trip id="1046_0" depart="28526.00" from="1351" to="1484" type="car" />
    <trip id="1393_0" depart="28532.00" from="426" to="1532" type="car" />
    <trip id="1422_0" depart="28534.00" from="432" to="449" type="car" />
    <trip id="716_0" depart="28537.00" from="5" to="1931" type="car" />
    <trip id="2247_0" depart="28538.00" from="1764" to="1824" type="car" />
    <trip id="1770_0" depart="28541.00" from="189" to="1563" type="car" />
    <trip id="1873_0" depart="28564.00" from="1667" to="1309" type="car" />
    <trip id="2077_0" depart="28565.00" from="633" to="292" type="car" />
    <trip id="1723_0" depart="28566.00" from="2053" to="1511" type="car" />
    <trip id="2085_0" depart="28573.00" from="1211" to="1674" type="car" />
    <trip id="1236_0" depart="28585.00" from="1709" to="2105" type="car" />
    <trip id="1718_0" depart="28587.00" from="1057" to="1518" type="car" />
    <trip id="1384_0" depart="28594.00" from="440" to="1617" type="car" />
    <trip id="59_0" depart="28602.00" from="1046" to="2143" type="car" />
    <trip id="20_0" depart="28603.00" from="152" to="212" type="car" />
    <trip id="1302_0" depart="28610.00" from="103" to="1251" type="car" />
    <trip id="285_0" depart="28627.00" from="1771" to="1858" type="car" />
    <trip id="1410_0" depart="28630.00" from="76" to="1968" type="car" />
    <trip id="315_0" depart="28635.00" from="2071" to="147" type="car" />
    <trip id="952_0" depart="28635.00" from="1558" to="1951" type="car" />
    <trip id="369_0" depart="28636.00" from="913" to="1607" type="car" />
    <trip id="1242_0" depart="28642.00" from="1823" to="1666" type="car" />
    <trip id="1074_0" depart="28643.00" from="1629" to="1556" type="car" />
    <trip id="102_0" depart="28672.00" from="863" to="1820" type="car" />
    <trip id="1536_0" depart="28681.00" from="1032" to="1958" type="car" />
    <trip id="236_0" depart="28692.00" from="1210" to="1043" type="car" />
    <trip id="776_0" depart="28703.00" from="2135" to="2058" type="car" />
    <trip id="997_0" depart="28704.00" from="98" to="505" type="car" />
    <trip id="922_0" depart="28723.00" from="297" to="2121" type="car" />
    <trip id="2164_0" depart="28731.00" from="1662" to="321" type="car" />
    <trip id="1039_0" depart="28732.00" from="652" to="493" type="car" />
    <trip id="769_0" depart="28742.00" from="1436" to="565" type="car" />