<routes xmlns:xsi="http://www.w3.org/2001/XMLSchema-instance" xsi:noNamespaceSchemaLocation="http://sumo.dlr.de/xsd/routes_file.xsd">
    <vType id="car" vClass="passenger" />
    <vType id="bicycle" vClass="bicycle" />
    <route edges="26 24 22 20 18 16 14 12 10 1957 1955 1953 782 783" id="r_0" />
    <route edges="90 91 2105 1960 1961 212 216 202 204 1866 1868 7 9 11 13 15 17 19 21 23 25 27 232 234 236 1769 1771 1773 1775 1777 428 1656 1654 1652 1650 1648 1646 1644 1642 1640 1638 1636 1894 1560 1558 1556 1554 1552 1550 1548 1546 981 982 983 984 985 986 987 988 274 730 731 732 733" id="r_1" />
    <route edges="1669 1671 1481" id="r_2" />
    <route edges="1815 1816 1817 1818 1819 1820 1821 1822 1823 1828 1830 1832 1028 1029 1030 1031 1032 1033 1034 1035 1036 1037 1038 1039 1040 1041 1155 1987 1989 1991 1380 1361 1362 1363 1364 1365 1366 1367 1368 1369 1370 1371 1372 1373 2041 2043 2045 603 605 607 609 611 613 615 547 548 549 550 551 254 256 258 506 504" id="r_3" />
    <route edges="249 247 245 422 1233 1218 1240" id="r_4" />
    <route edges="1656 1654 1652 1650 1648 1646 1644 1642 1640 1638 1636 1894 2078 2076 2074 1813 2129 1063 1061 1059 1057 1055 1053 1051 1049 1047 1045 1043 1042 1044" id="r_5" />
    <route edges="679 1071 1069 1067 228 230 28 26 24 22 20 18 16 14 12 10 8 1869 1867 352 354 1860 2194" id="r_6" />
    <route edges="1601 1602 1603 1604 1605 1606 1607 1608 1609 542 543 544 1482 1483 1484 496 497 498 572 570 568 566 1339 1341 1343 1345 1347 1349 1351 1353 1355 1357 1307 1309 1311 1388 1386 557 558 559 560 561 562 563 564 546 616 614 612 610 608 606 604 1283 1285 1287 1289 1290" id="r_7" />
    <route edges="1514 1512 1510 1508 1506 1504 1502 1500 2078 2076 2074 2072 2070 2068 2066 2064 1925 1923" id="r_8" />
    <route edges="1354 1352 1351 1353 1355 1357 1307 1309 1311 1388 1386 557 558 559 560 561 562 563 564 546 547 548 549 550 551 254 256 258 260 262 264 266 268 1525 1527 1529 1531 1533 1535 1537 1539 1541 362 364 366 368 370 372 798 910 812 814" id="r_9" />
    <trip id="404_0" depart="20425.00" from="213" to="2067" type="car" />
    <trip id="864_0" depart="22571.00" from="1649" to="69" type="car" />
    <trip id="696_0" depart="22945.00" from="691" to="1808" type="car" />
    <trip id="352_0" depart="23042.00" from="1140" to="101" type="car" />
    <trip id="363_0" depart="23531.00" from="1885" to="868" type="car" />
    <trip id="235_0" depart="23546.00" from="1466" to="1106" type="car" />
    <trip id="121_0" depart="23631.00" from="814" to="1345" type="car" />
    <trip id="266_0" depart="23791.00" from="1379" to="1156" type="car" />
    <trip id="632_0" depart="23838.00" from="1613" to="1662" type="car" />
    <trip id="253_0" depart="24164.00" from="735" to="523" type="car" />
    <trip id="117_0" depart="24464.00" from="158" to="1074" type="car" />
    <trip id="27_0" depart="24654.00" from="425" to="834" type="car" />
    <trip id="843_0" depart="24670.00" from="281" to="1598" type="car" />
    <trip id="221_0" depart="24766.00" from="1064" to="582" type="car" />
    <trip id="807_0" depart="24857.00" from="993" to="1178" type="car" />
    <trip id="243_0" depart="24876.00" from="2071" to="417" type="car" />
    <trip id="549_0" depart="25081.00" from="1041" to="1333" type="car" />
    <trip id="454_0" depart="25143.00" from="1601" to="889" type="car" />
    <trip id="585_0" depart="25145.00" from="1989" to="1143" type="car" />
    <trip id="511_0" depart="25185.00" from="1434" to="882" type="car" />
    <trip id="839_0" depart="25349.00" from="26" to="783" type="car" />
    <trip id="725_0" depart="25465.00" from="90" to="733" type="car" />
    <trip id="407_0" depart="25496.00" from="1669" to="1481" type="car" />
    <trip id="532_0" depart="25574.00" from="1815" to="504" type="car" />
    <trip id="768_0" depart="25622.00" from="249" to="1240" type="car" />
    <trip id="499_0" depart="25647.00" from="1656" to="1044" type="car" />
    <trip id="440_0" depart="25750.00" from="679" to="2194" type="car" />
    <trip id="339_0" depart="25787.00" from="1601" to="1290" type="car" />
    <trip id="507_0" depart="25819.00" from="1514" to="1923" type="car" />
    <trip id="968_0" depart="25918.00" from="1354" to="814" type="car" />
    <trip id="99_0" depart="25919.00" from="529" to="690" type="car" />
    <trip id="986_0" depart="25924.00" from="500" to="1665" type="car" />
    <trip id="13_0" depart="25932.00" from="622" to="1057" type="car" />
    <trip id="365_0" depart="25972.00" from="1037" to="655" type="car" />
    <trip id="989_0" depart="25986.00" from="348" to="250" type="car" />
    <trip id="173_0" depart="26024.00" from="142" to="1953" type="car" />
    <trip id="953_0" depart="26126.00" from="1009" to="648" type="car" />
    <trip id="987_0" depart="26140.00" from="1469" to="1132" type="car" />
    <trip id="251_0" depart="26157.00" from="1387" to="93" type="car" />
    <trip id="133_0" depart="26237.00" from="1617" to="1121" type="car" />
    <trip id="465_0" depart="26312.00" from="1717" to="1939" type="car" />
    <trip id="295_0" depart="26338.00" from="1412" to="1556" type="car" />
    <trip id="830_0" depart="26392.00" from="377" to="2136" type="car" />
    <trip id="933_0" depart="26410.00" from="606" to="874" type="car" />
    <trip id="833_0" depart="26419.00" from="808" to="703" type="car" />
    <trip id="960_0" depart="26429.00" from="1767" to="729" type="car" />
    <trip id="941_0" depart="26481.00" from="1357" to="1959" type="car" />
    <trip id="223_0" depart="26510.00" from="1208" to="1813" type="car" />
    <trip id="907_0" depart="26620.00" from="2113" to="1524" type="car" />
    <trip id="21_0" depart="26670.00" from="146" to="428" type="car" />
    <trip id="153_0" depart="26672.00" from="674" to="78" type="car" />
    <trip id="441_0" depart="26729.00" from="961" to="452" type="car" />
    <trip id="191_0" depart="26835.00" from="60" to="2143" type="car" />
    <trip id="662_0" depart="26900.00" from="1816" to="363" type="car" />
    <trip id="562_0" depart="26909.00" from="916" to="1811" type="car" />
    <trip id="733_0" depart="26934.00" from="2069" to="37" type="car" />
    <trip id="730_0" depart="27017.00" from="302" to="161" type="car" />
    <trip id="56_0" depart="27019.00" from="1342" to="3" type="car" />
    <trip id="263_0" depart="27028.00" from="70" to="221" type="car" />
    <trip id="519_0" depart="27071.00" from="858" to="1887" type="car" />
    <trip id="811_0" depart="27122.00" from="86" to="222" type="car" />
    <trip id="179_0" depart="27124.00" from="917" to="721" type="car" />
    <trip id="788_0" depart="27131.00" from="1833" to="1133" type="car" />
    <trip id="37_0" depart="27202.00" from="1058" to="1052" type="car" />
    <trip id="515_0" depart="27225.00" from="713" to="2011" type="car" />
    <trip id="480_0" depart="27240.00" from="1606" to="266" type="car" />
    <trip id="59_0" depart="27284.00" from="1046" to="2143" type="car" />
    <trip id="726_0" depart="27325.00" from="1289" to="1797" type="car" />
    <trip id="315_0" depart="27327.00" from="2071" to="147" type="car" />
    <trip id="671_0" depart="27340.00" from="23" to="2079" type="car" />
    <trip id="996_0" depart="27370.00" from="2108" to="1055" type="car" />
    <trip id="475_0" depart="27399.00" from="1772" to="2015" type="car" />
    <trip id="78_0" depart="27415.00" from="1182" to="1316" type="car" />
    <trip id="928_0" depart="27424.00" from="605" to="1793" type="car" />
    <trip id="226_0" depart="27453.00" from="998" to="658" type="car" />
    <trip id="435_0" depart="27455.00" from="1650" to="2077" type="car" />
    <trip id="584_0" depart="27465.00" from="838" to="1217" type="car" />
    <trip id="52_0" depart="27485.00" from="609" to="839" type="car" />
    <trip id="708_0" depart="27502.00" from="396" to="1175" type="car" />
    <trip id="915_0" depart="27559.00" from="293" to="1683" type="car" />
    <trip id="190_0" depart="27588.00" from="819" to="1192" type="car" />
    <trip id="903_0" depart="27624.00" from="1426" to="1354" type="car" />
    <trip id="831_0" depart="27667.00" from="2077" to="296" type="car" />
    <trip id="665_0" depart="27668.00" from="1324" to="1097" type="car" />
    <trip id="449_0" depart="27700.00" from="1537" to="653" type="car" />
    <trip id="697_0" depart="27705.00" from="2008" to="1062" type="car" />
    <trip id="143_0" depart="27712.00" from="1856" to="376" type="car" />
    <trip id="92_0" depart="27721.00" from="1435" to="1031" type="car" />
    <trip id="923_0" depart="27758.00" from="1507" to="289" type="car" />
    <trip id="518_0" depart="27775.00" from="768" to="1875" type="car" />
    <trip id="69_0" depart="27776.00" from="1915" to="2080" type="car" />
    <trip id="887_0" depart="27791.00" from="977" to="900" type="car" />
    <trip id="650_0" depart="27818.00" from="1036" to="1804" type="car" />
    <trip id="685_0" depart="27818.00" from="872" to="1537" type="car" />
    <trip id="481_0" depart="27838.00" from="1094" to="1445" type="car" />
    <trip id="470_0" depart="27888.00" from="1736" to="1996" type="car" />
    <trip id="77_0" depart="27927.00" from="426" to="1784" type="car" />
    <trip id="626_0" depart="27935.00" from="1281" to="640" type="car" />
    <trip id="544_0" depart="27947.00" from="63" to="1062" type="car" />
    <trip id="207_0" depart="27957.00" from="1071" to="1193" type="car" />
    <trip id="729_0" depart="27976.00" from="116" to="1497" type="car" />
    <trip id="774_0" depart="27982.00" from="680" to="1765" type="car" />
    <trip id="128_0" depart="28015.00" from="1265" to="623" type="car" />
    <trip id="931_0" depart="28015.00" from="1594" to="127" type="car" />
    <trip id="107_0" depart="28036.00" from="1377" to="552" type="car" />
    <trip id="861_0" depart="28081.00" from="372" to="1089" type="car" />
    <trip id="16_0" depart="28099.00" from="1797" to="1494" type="car" />
    <trip id="772_0" depart="28116.00" from="1459" to="495" type="car" />
    <trip id="859_0" depart="28122.00" from="2177" to="1843" type="car" />
    <trip id="406_0" depart="28136.00" from="1992" to="549" type="car" />
    <trip id="802_0" depart="28155.00" from="88" to="55" type="car" />
    <trip id="575_0" depart="28156.00" from="1930" to="402" type="car" />
    <trip id="401_0" depart="28183.00" from="1030" to="1089" type="car" />
    <trip id="181_0" depart="28214.00" from="876" to="1090" type="car" />
    <trip id="865_0" depart="28249.00" from="1845" to="642" type="car" />
    <trip id="874_0" depart="28261.00" from="1954" to="22" type="car" />
    <trip id="552_0" depart="28282.00" from="1094" to="507" type="car" />
    <trip id="344_0" depart="28284.00" from="1833" to="2188" type="car" />
    <trip id="918_0" depart="28284.00" from="1097" to="1115" type="car" />
    <trip id="326_0" depart="28289.00" from="1784" to="1568" type="car" />
    <trip id="622_0" depart="28313.00" from="451" to="361" type="car" />
    <trip id="762_0" depart="28315.00" from="2192" to="124" type="car" />
    <trip id="476_0" depart="28328.00" from="1527" to="1531" type="car" />
    <trip id="490_0" depart="28330.00" from="1726" to="2048" type="car" />
    <trip id="568_0" depart="28342.00" from="2018" to="384" type="car" />
    <trip id="815_0" depart="28349.00" from="2164" to="2112" type="car" />
    <trip id="508_0" depart="28366.00" from="1382" to="1335" type="car" />
    <trip id="230_0" depart="28414.00" from="1610" to="482" type="car" />
    <trip id="936_0" depart="28426.00" from="812" to="1539" type="car" />
    <trip id="784_0" depart="28458.00" from="1753" to="2052" type="car" />
    <trip id="679_0" depart="28468.00" from="2105" to="421" type="car" />
    <trip id="537_0" depart="28472.00" from="1718" to="70" type="car" />
    <trip id="657_0" depart="28472.00" from="380" to="70" type="car" />
    <trip id="916_0" depart="28474.00" from="1183" to="655" type="car" />
    <trip id="420_0" depart="28483.00" from="1803" to="840" type="car" />
    <trip id="487_0" depart="28541.00" from="110" to="380" type="car" />
    <trip id="260_0" depart="28545.00" from="1088" to="859" type="car" />
    <trip id="691_0" depart="28546.00" from="1588" to="1921" type="car" />
    <trip id="862_0" depart="28552.00" from="619" to="1500" type="car" />
    <trip id="376_0" depart="28592.00" from="1648" to="1194" type="car" />
    <trip id="119_0" depart="28623.00" from="682" to="950" type="car" />
    <trip id="664_0" depart="28633.00" from="546" to="1345" type="car" />
    <trip id="85_0" depart="28648.00" from="2012" to="733" type="car" />
    <trip id="592_0" depart="28660.00" from="637" to="1521" type="car" />
    <trip id="312_0" depart="28677.00" from="1405" to="783" type="car" />
    <trip id="589_0" depart="28692.00" from="1655" to="2065" type="car" />
    <trip id="659_0" depart="28698.00" from="822" to="1828" type="car" />
    <trip id="131_0" depart="28706.00" from="514" to="612" type="car" />
    <trip id="408_0" depart="28739.00" from="1711" to="2135" type="car" />
    <trip id="540_0" depart="28754.00" from="278" to="1134" type="car" />
    <trip id="329_0" depart="28760.00" from="514" to="1433" type="car" />
    <trip id="539_0" depart="28787.00" from="793" to="2093" type="car" />
    <trip id="362_0" depart="28860.00" from="300" to="2111" type="car" />
    <trip id="999_0" depart="28866.00" from="1692" to="1719" type="car" />
    <trip id="87_0" depart="28881.00" from="960" to="308" type="car" />
    <trip id="76_0" depart="28886.00" from="724" to="849" type="car" />
    <trip id="500_0" depart="28913.00" from="112" to="1939" type="car" />
    <trip id="54_0" depart="28923.00" from="1327" to="1351" type="car" />
    <trip id="423_0" depart="28935.00" from="425" to="1116" type="car" />
    <trip id="513_0" depart="28955.00" from="1173" to="873" type="car" />
    <trip id="373_0" depart="28962.00" from="2031" to="113" type="car" />
    <trip id="510_0" depart="28965.00" from="1066" to="1808" type="car" />
    <trip id="84_0" depart="28969.00" from="1513" to="9" type="car" />
    <trip id="873_0" depart="28999.00" from="1172" to="263" type="car" />
    <trip id="688_0" depart="29005.00" from="732" to="220" type="car" />
    <trip id="906_0" depart="29023.00" from="1388" to="1028" type="car" />
    <trip id="233_0" depart="29056.00" from="1792" to="363" type="car" />
    <trip id="950_0" depart="29073.00" from="1859" to="1055" type="car" />
    <trip id="743_0" depart="29093.00" from="741" to="664" type="car" />
    <trip id="79_0" depart="29097.00" from="900" to="994" type="car" />
    <trip id="246_0" depart="29143.00" from="1829" to="543" type="car" />
    <trip id="126_0" depart="29149.00" from="1759" to="2120" type="car" />
    <trip id="400_0" depart="29150.00" from="1398" to="2049" type="car" />
    <trip id="35_0" depart="29153.00" from="1335" to="1026" type="car" />
    <trip id="72_0" depart="29157.00" from="1016" to="210" type="car" />
    <trip id="919_0" depart="29171.00" from="2148" to="112" type="car" />
    <trip id="979_0" depart="29196.00" from="590" to="1274" type="car" />
    <trip id="120_0" depart="29208.00" from="1847" to="416" type="car" />
    <trip id="701_0" depart="29219.00" from="545" to="802" type="car" />
    <trip id="748_0" depart="29223.00" from="659" to="1185" type="car" />
    <trip id="958_0" depart="29226.00" from="252" to="1355" type="car" />
    <trip id="553_0" depart="29239.00" from="1211" to="1897" type="car" />
    <trip id="424_0" depart="29240.00" from="86" to="758" type="car" />
    <trip id="914_0" depart="29258.00" from="812" to="451" type="car" />
    <trip id="567_0" depart="29261.00" from="1351" to="1483" type="car" />
    <trip id="240_0" depart="29278.00" from="246" to="1238" type="car" />
    <trip id="773_0" depart="29278.00" from="45" to="2016" type="car" />
    <trip id="998_0" depart="29278.00" from="1577" to="1110" type="car" />
    <trip id="554_0" depart="29287.00" from="866" to="1107" type="car" />
    <trip id="706_0" depart="29317.00" from="324" to="284" type="car" />
    <trip id="541_0" depart="29320.00" from="882" to="1036" type="car" />
    <trip id="350_0" depart="29322.00" from="1199" to="1587" type="car" />
    <trip id="600_0" depart="29325.00" from="1133" to="1190" type="car" />
    <trip id="590_0" depart="29387.00" from="371" to="362" type="car" />
    <trip id="769_0" depart="29419.00" from="1436" to="565" type="car" />
    <trip id="90_0" depart="29422.00" from="1369" to="1608" type="car" />
    <trip id="426_0" depart="29426.00" from="1779" to="122" type="car" />
    <trip id="598_0" depart="29430.00" from="53" to="1196" type="car" />
    <trip id="714_0" depart="29433.00" from="2173" to="227" type="car" />
    <trip id="962_0" depart="29440.00" from="891" to="1672" type="car" />
    <trip id="972_0" depart="29441.00" from="1880" to="304" type="car" />
    <trip id="421_0" depart="29448.00" from="1387" to="1326" type="car" />
    <trip id="255_0" depart="29461.00" from="1125" to="1179" type="car" />
    <trip id="285_0" depart="29463.00" from="1771" to="1858" type="car" />
    <trip id="369_0" depart="29463.00" from="913" to="1607" type="car" />
    <trip id="577_0" depart="29480.00" from="219" to="1207" type="car" />
    <trip id="803_0" depart="29514.00" from="844" to="875" type="car" />
    <trip id="130_0" depart="29516.00" from="1140" to="1926" type="car" />
    <trip id="379_0" depart="29540.00" from="644" to="1065" type="car" />
    <trip id="314_0" depart="29557.00" from="863" to="1099" type="car" />
    <trip id="677_0" depart="29567.00" from="192" to="1384" type="car" />
    <trip id="418_0" depart="29615.00" from="647" to="556" type="car" />
    <trip id="852_0" depart="29635.00" from="29" to="2194" type="car" />
    <trip id="142_0" depart="29637.00" from="2060" to="44" type="car" />
    <trip id="212_0" depart="29658.00" from="1062" to="384" type="car" />
    <trip id="742_0" depart="29671.00" from="145" to="1632" type="car" />
    <trip id="740_0" depart="29697.00" from="1377" to="1426" type="car" />
    <trip id="204_0" depart="29698.00" from="1064" to="200" type="car" />
    <trip id="667_0" depart="29718.00" from="2108" to="1692" type="car" />
    <trip id="178_0" depart="29720.00" from="2136" to="2123" type="car" />
    <trip id="197_0" depart="29737.00" from="1046" to="409" type="car" />
    <trip id="527_0" depart="29746.00" from="1396" to="11" type="car" />
    <trip id="30_0" depart="29756.00" from="453" to="852" type="car" />
    <trip id="210_0" depart="29770.00" from="332" to="404" type="car" />
    <trip id="60_0" depart="29784.00" from="1611" to="2101" type="car" />
    <trip id="137_0" depart="29786.00" from="860" to="651" type="car" />
    <trip id="877_0" depart="29788.00" from="44" to="67" type="car" />
    <trip id="411_0" depart="29803.00" from="289" to="2132" type="car" />
    <trip id="602_0" depart="29807.00" from="1462" to="1573" type="car" />
    <trip id="827_0" depart="29808.00" from="1032" to="2102" type="car" />
    <trip id="786_0" depart="29811.00" from="1544" to="2158" type="car" />
    <trip id="818_0" depart="29825.00" from="1668" to="1031" type="car" />
    <trip id="594_0" depart="29838.00" from="1146" to="1355" type="car" />
    <trip id="619_0" depart="29838.00" from="12" to="804" type="car" />
    <trip id="211_0" depart="29861.00" from="499" to="912" type="car" />
    <trip id="86_0" depart="29889.00" from="931" to="118" type="car" />
    <trip id="304_0" depart="29894.00" from="1493" to="972" type="car" />
    <trip id="382_0" depart="29902.00" from="1858" to="1630" type="car" />
    <trip id="492_0" depart="29903.00" from="643" to="1796" type="car" />
    <trip id="841_0" depart="29906.00" from="1932" to="384" type="car" />
    <trip id="693_0" depart="29911.00" from="1345" to="2159" type="car" />
    <trip id="442_0" depart="29912.00" from="1383" to="284" type="car" />
    <trip id="459_0" depart="29929.00" from="1893" to="69" type="car" />
    <trip id="186_0" depart="29931.00" from="372" to="123" type="car" />
    <trip id="867_0" depart="29931.00" from="1030" to="1992" type="car" />
    <trip id="720_0" depart="29946.00" from="1233" to="1604" type="car" />
    <trip id="984_0" depart="29971.00" from="1444" to="2158" type="car" />
    <trip id="640_0" depart="29976.00" from="1307" to="343" type="car" />
    <trip id="88_0" depart="29990.00" from="1777" to="1939" type="car" />
    <trip id="646_0" depart="29999.00" from="1575" to="644" type="car" />
    <trip id="844_0" depart="30008.00" from="871" to="1359" type="car" />
    <trip id="990_0" depart="30012.00" from="749" to="1062" type="car" />
    <trip id="514_0" depart="30016.00" from="976" to="435" type="car" />
    <trip id="738_0" depart="30016.00" from="1775" to="1722" type="car" />
    <trip id="457_0" depart="30031.00" from="364" to="1334" type="car" />
    <trip id="654_0" depart="30044.00" from="1265" to="1517" type="car" />
    <trip id="387_0" depart="30046.00" from="1603" to="1461" type="car" />
    <trip id="299_0" depart="30047.00" from="1859" to="715" type="car" />
    <trip id="242_0" depart="30049.00" from="902" to="1488" type="car" />
    <trip id="760_0" depart="30059.00" from="1668" to="1356" type="car" />
    <trip id="560_0" depart="30072.00" from="1343" to="1814" type="car" />
    <trip id="175_0" depart="30094.00" from="955" to="1506" type="car" />
    <trip id="31_0" depart="30104.00" from="650" to="393" type="car" />
    <trip id="570_0" depart="30115.00" from="1668" to="423" type="car" />
    <trip id="559_0" depart="30121.00" from="278" to="92" type="car" />
    <trip id="345_0" depart="30129.00" from="1208" to="1748" type="car" />
    <trip id="707_0" depart="30149.00" from="1879" to="1345" type="car" />
    <trip id="422_0" depart="30150.00" from="386" to="230" type="car" />
    <trip id="715_0" depart="30151.00" from="377" to="19" type="car" />
    <trip id="136_0" depart="30179.00" from="2169" to="2168" type="car" />
    <trip id="564_0" depart="30189.00" from="1460" to="1779" type="car" />
    <trip id="330_0" depart="30190.00" from="542" to="126" type="car" />
    <trip id="869_0" depart="30191.00" from="811" to="1277" type="car" />
    <trip id="91_0" depart="30195.00" from="2150" to="1354" type="car" />
    <trip id="853_0" depart="30204.00" from="939" to="1041" type="car" />
    <trip id="188_0" depart="30218.00" from="145" to="628" type="car" />
    <trip id="158_0" depart="30242.00" from="1095" to="888" type="car" />
    <trip id="780_0" depart="30256.00" from="1948" to="2019" type="car" />
    <trip id="840_0" depart="30266.00" from="869" to="574" type="car" />
    <trip id="947_0" depart="30279.00" from="413" to="693" type="car" />
    <trip id="785_0" depart="30289.00" from="1064" to="1788" type="car" />
    <trip id="509_0" depart="30297.00" from="1217" to="859" type="car" />
    <trip id="482_0" depart="30299.00" from="1847" to="1588" type="car" />
    <trip id="206_0" depart="30305.00" from="581" to="1117" type="car" />
    <trip id="150_0" depart="30308.00" from="671" to="1299" type="car" />
    <trip id="321_0" depart="30327.00" from="1648" to="48" type="car" />
    <trip id="849_0" depart="30335.00" from="753" to="67" type="car" />
    <trip id="22_0" depart="30337.00" from="1348" to="899" type="car" />
    <trip id="216_0" depart="30350.00" from="1594" to="849" type="car" />
    <trip id="973_0" depart="30371.00" from="1839" to="2123" type="car" />
    <trip id="252_0" depart="30373.00" from="1527" to="1347" type="car" />
    <trip id="745_0" depart="30390.00" from="2064" to="1278" type="car" />
    <trip id="129_0" depart="30394.00" from="1897" to="1499" type="car" />
    <trip id="224_0" depart="30413.00" from="264" to="1204" type="car" />
    <trip id="789_0" depart="30417.00" from="2152" to="1192" type="car" />
    <trip id="286_0" depart="30429.00" from="686" to="1896" type="car" />
    <trip id="390_0" depart="30447.00" from="651" to="1201" type="car" />
    <trip id="486_0" depart="30458.00" from="1837" to="1464" type="car" />
    <trip id="558_0" depart="30471.00" from="1470" to="1811" type="car" />
    <trip id="141_0" depart="30484.00" from="720" to="894" type="car" />
    <trip id="259_0" depart="30502.00" from="164" to="377" type="car" />
    <trip id="238_0" depart="30510.00" from="1118" to="904" type="car" />
    <trip id="214_0" depart="30547.00" from="723" to="209" type="car" />
    <trip id="680_0" depart="30562.00" from="733" to="1945" type="car" />
    <trip id="368_0" depart="30565.00" from="2127" to="34" type="car" />
    <trip id="890_0" depart="30567.00" from="457" to="249" type="car" />
    <trip id="67_0" depart="30580.00" from="120" to="1579" type="car" />
    <trip id="699_0" depart="30589.00" from="362" to="774" type="car" />
    <trip id="372_0" depart="30608.00" from="704" to="756" type="car" />
    <trip id="550_0" depart="30622.00" from="2126" to="528" type="car" />
    <trip id="911_0" depart="30623.00" from="500" to="1473" type="car" />
    <trip id="446_0" depart="30631.00" from="1948" to="15" type="car" />
    <trip id="96_0" depart="30631.00" from="1096" to="1351" type="car" />
    <trip id="135_0" depart="30650.00" from="1516" to="1933" type="car" />
    <trip id="397_0" depart="30656.00" from="204" to="31" type="car" />
    <trip id="472_0" depart="30657.00" from="847" to="1441" type="car" />
    <trip id="695_0" depart="30663.00" from="450" to="1575" type="car" />
    <trip id="791_0" depart="30666.00" from="92" to="1884" type="car" />
    <trip id="415_0" depart="30687.00" from="14" to="1637" type="car" />
    <trip id="974_0" depart="30688.00" from="1122" to="343" type="car" />
    <trip id="105_0" depart="30719.00" from="1966" to="1960" type="car" />
    <trip id="405_0" depart="30725.00" from="1195" to="1282" type="car" />
    <trip id="809_0" depart="30729.00" from="404" to="874" type="car" />
    <trip id="183_0" depart="30738.00" from="1424" to="1467" type="car" />
    <trip id="300_0" depart="30743.00" from="1808" to="1505" type="car" />
    <trip id="798_0" depart="30743.00" from="2116" to="695" type="car" />
    <trip id="880_0" depart="30756.00" from="210" to="996" type="car" />
    <trip id="935_0" depart="30761.00" from="1749" to="233" type="car" />
    <trip id="148_0" depart="30766.00" from="1607" to="895" type="car" />
    <trip id="44_0" depart="30767.00" from="1541" to="762" type="car" />
    <trip id="8_0" depart="30777.00" from="2" to="1539" type="car" />
    <trip id="64_0" depart="30781.00" from="2014" to="115" type="car" />
    <trip id="269_0" depart="30806.00" from="670" to="524" type="car" />
    <trip id="155_0" depart="30866.00" from="407" to="468" type="car" />
    <trip id="343_0" depart="30878.00" from="1408" to="1736" type="car" />
    <trip id="448_0" depart="30878.00" from="2200" to="2164" type="car" />
    <trip id="648_0" depart="30882.00" from="1750" to="1907" type="car" />
    <trip id="728_0" depart="30884.00" from="338" to="1018" type="car" />
    <trip id="885_0" depart="30892.00" from="1586" to="1687" type="car" />
    <trip id="934_0" depart="30902.00" from="391" to="399" type="car" />
    <trip id="10_0" depart="30916.00" from="1015" to="1325" type="car" />
    <trip id="496_0" depart="30925.00" from="1759" to="2110" type="car" />
    <trip id="123_0" depart="30928.00" from="1532" to="1096" type="car" />
    <trip id="209_0" depart="30929.00" from="638" to="617" type="car" />
    <trip id="280_0" depart="30930.00" from="2033" to="1648" type="car" />
    <trip id="712_0" depart="30930.00" from="519" to="1680" type="car" />
    <trip id="924_0" depart="30938.00" from="74" to="212" type="car" />
    <trip id="627_0" depart="30948.00" from="513" to="865" type="car" />
    <trip id="478_0" depart="30963.00" from="197" to="1469" type="car" />
    <trip id="837_0" depart="30973.00" from="1132" to="1480" type="car" />
    <trip id="969_0" depart="30973.00" from="307" to="890" type="car" />
    <trip id="383_0" depart="30995.00" from="1623" to="340" type="car" />
    <trip id="241_0" depart="31007.00" from="892" to="504" type="car" />
    <trip id="354_0" depart="31020.00" from="101" to="1132" type="car" />
    <trip id="756_0" depart="31033.00" from="333" to="936" type="car" />
    <trip id="908_0" depart="31033.00" from="1968" to="1834" type="car" />
    <trip id="279_0" depart="31052.00" from="1427" to="232" type="car" />
    <trip id="161_0" depart="31064.00" from="586" to="764" type="car" />
    <trip id="458_0" depart="31076.00" from="195" to="1287" type="car" />
    <trip id="713_0" depart="31100.00" from="1167" to="1088" type="car" />
    <trip id="333_0" depart="31108.00" from="1266" to="1897" type="car" />
    <trip id="546_0" depart="31135.00" from="1310" to="1478" type="car" />
    <trip id="340_0" depart="31155.00" from="408" to="412" type="car" />
    <trip id="569_0" depart="31162.00" from="80" to="2144" type="car" />
    <trip id="963_0" depart="31166.00" from="1211" to="528" type="car" />
    <trip id="165_0" depart="31167.00" from="2149" to="947" type="car" />
    <trip id="669_0" depart="31181.00" from="97" to="246" type="car" />
    <trip id="248_0" depart="31195.00" from="1932" to="1556" type="car" />
    <trip id="716_0" depart="31218.00" from="5" to="1931" type="car" />
    <trip id="522_0" depart="31234.00" from="1827" to="996" type="car" />
    <trip id="939_0" depart="31236.00" from="572" to="892" type="car" />
    <trip id="917_0" depart="31242.00" from="2039" to="1637" type="car" />
    <trip id="534_0" depart="31243.00" from="258" to="547" type="car" />
    <trip id="566_0" depart="31243.00" from="336" to="1595" type="car" />
    <trip id="806_0" depart="31254.00" from="1088" to="1435" type="car" />
    <trip id="835_0" depart="31255.00" from="2137" to="1729" type="car" />
    <trip id="747_0" depart="31258.00" from="1782" to="800" type="car" />
    <trip id="353_0" depart="31262.00" from="1169" to="1469" type="car" />