<routes xmlns:xsi="http://www.w3.org/2001/XMLSchema-instance" xsi:noNamespaceSchemaLocation="http://sumo.dlr.de/xsd/routes_file.xsd">
  <vType id="car" vClass="passenger" />
  <vType id="bicycle" vClass="bicycle" />
  <route edges="152 153 151 149 147 145 143 141 2171 2173 2175 2177 2179 214 212 216 202 204 1866 1868 7 9 11 13 15 17 19 21 23 25 27 232 234 236 1769 1771 1773 1775 1777 428 1656 1654 1652 1650 1648 1646 1644 1642 1640 1638 1636 1894 2078 2076 2074 2072 2070 1673 1675" id="r_0" />
    <route edges="352 354 355 353 1866 1868 7 9 11 13 15 17 19 21 23 25 27 232 234 236 1769 1771 1773 2040 2038 2036 769" id="r_1" />
    <route edges="1046 1048 1050 1052 1054 1056 1058 1060 1062 1621 1622 2075 2077 1893 1634 1632 1630 1628 406 408 410 412 414 416 418 420 421 419 417 415 413 411 409" id="r_2" />
    <route edges="2126 2127 2125 2123 2121 2119 2117 2115 2113 2111 2109 2107 2105 1960 1961 212 216 202 204 530 528" id="r_3" />
    <route edges="1266 355 353 1866 1868 7 9 11 13 15 17 19 21 23 25 27 232 234 236 1769 1771 1773 1775 1777 428 1656 1895 1897" id="r_4" />
    <route edges="1488 1489 1490 1491 1492 1617 1618 1619 1620 1601 1602 1603 1604 1605 1606 1607 1608 1609 481 482 2187 2188 2189 2190 2191 2192 2182 590 591 592 1575 1576 1577 1578 1579 1580 765 766 767 768 299 771 772 773 774 1564 1565 1566 1567 1568 1569 1570 585 586 587 588 589 430 431 432 433 434 129 127 125 123 121 119" id="r_5" />
    <route edges="1993 1995 1997 20 18 16 14 12 10 8 1869 1867 205 203 1581 1582 1583 1584 1585 1586 1587 1588" id="r_6" />
    <route edges="1424 1444 1442 1440 1438 1436 1610 1611 1612 1613 1614 1615 1616 1461 1462 1463 1464 1465 1466 1467" id="r_7" />
    <route edges="1944 1946 1948 1950 1952 1954 1956 9 11 13 15 17 19 21 23 25 27 232 234 236 1769 1771 1773 1775 1777 428 1656 1654 1652 1650 1648 1646 1644 1642 1640 1638 1636 1894 2078 2076 2074 2072 2070 1673 1675 1677 1679 1681 1683 1685 1687 1689 1691 1693 1695" id="r_8" />
    <route edges="1446 1444 1442 1440 1132 1134 1136 1594 1592 1590 1381 1382 1383 1384 1564 1565 1566 1567 1568 1569 1570 585 586 587 588 589 430 431 432 433 434 435 436 437 438 439 1561 1562 1563 1482 1483 1484 496 497 498 572 570 568 566 1339 1341 1343 1345 1347 1349 1351 1353 1355 1357 1307 1309 1311 1388 1386 557 558 559 560 561 562 563 564 546 547 548 549 550 551 254 256 258 260 262 264 266 268 1525 1527 1529 1531 1533 1535 1537 1539 1541 362 364 366 368 370 372 798 910 812 814 816 818 820 822 824 826 828 830 832 834 836 838 840 842 844 846 848 850 852 854 856 858 860 862 864 866 868" id="r_9" />
    <!-- <route edges="998 195 1186 1184 1182 1180 1178 1176 1174 1172 1170 1276 1274 1272 1270 2191 2192 2182 590 591 592 1575 1576 1577 1578 1579 1580 765 766 767 768 299 771 772 773 774 1564 1565 1566 1567 1568 1569 1570 585 586 587 588 589 430 660 658" id="r_10" />
    <route edges="1040 1041 1155 1987 1989 1991 1380 1361 1362 1363 1364 1365 1366 1367 1368 1369 1370 1371 1372 1373 2041 2043 2045 603 605 607 609 611 613 615 547 548 549 550 551 552 553 554 555 556 1385 1387 1313 1315 1317 1319 1321 1323 1325 1327 1329 1331 1333 1335 1337 565 567 569 571 1836 1837 1490 1491 1492 1617 1618 1619 1620 1601 1602 1603 1604 1605 1606 1607 1608 1609 481 482 2187 2188 2189 2190 2191 2192 2182 590 591 592 1575 1576 1577 1578 1579 1580 765 766 767 768 299 771 772 773 774 1564 1565 1566 1567 1568" id="r_11" />
    <route edges="1964 1062 1621 1664 2072 2070 1673 1675 1677 1679 1681 1683 1685 1687 1689 1691 1693 1695 1697 1699 1701 1703 1705 1707 1709 1711 1713 1715 1717" id="r_12" />
    <route edges="1613 1614 1615 1616 1461 1462 1463 1464 1465 1466 1467 1888 1493 1494 1495 1496 1497 1498 1569 1570 585 586 587 588 589 430 431 432 433 434 435 436 437 438 439 1561 1562 1563 1482 1483 1484 1485 1486 1487 1488 1489 1490 1491 1492 1617 1618 1619 1620 1601 1602 1603 1604 1605 1606 1607 1608 1609 481 482 2187 2188 2189 2190 1269 1271 1273 1275 1168 1166 1164 1163" id="r_13" />
    <route edges="1327 1329 1331 1333 1335 1337 1339 1341 1343 1345 1347 1349 1351" id="r_14" />
    <route edges="622 752 753 754 755 756 757 758 2057 2059 2061 2063 2065 2067 2069 2128 2129 1063 1061 1059 1057" id="r_15" />
    <route edges="1387 1313 1315 1317 1319 1321 1323 1325 1327 1329 1331 1333 1335 1337 565 567 569 571 1836 1837 1490 1491 1492 1617 1618 1619 1620 1601 1602 1603 1604 1605 1606 1607 1608 1609 481 482 2187 2188 2189 2190 1269 1271 1273 1275 1169 1171 97 95 93" id="r_16" />
    <route edges="735 736 1050 1052 1054 1056 1058 1060 1062 1621 1622 2075 2077 1893 1635 1637 1639 1641 1643 1645 1647 1649 1651 1653 1655 429 1778 1776 1774 1772 1770 237 235 233 28 26 24 22 20 18 16 14 12 10 8 1869 1867 530 528 526 524 522 520 518 516 515 517 519 521 523" id="r_17" />
    <route edges="1107 1033 1034 1035 1036 1037 1038 1039 1040 1041 1155 1987 1989 1991 1380 1361 1362 1363 1364 1365 1366 1367 1368 1369 1370 1371 1372 1373 2041 2043 2045 603 605 607 609 611 613 615 547 548 549 550 551 552 553 554 555 556 1385 1387 1313 1315 1317 1319 1321 1323 1325 1327 1329 1331 1333 1335 1337 565 567 569 571 1836 1837 1490 1491 1492 1617 1618 1619 1620 1601 1602 1603 1604 1605 1606 1607 1608 1609 481 482 2187 2188 2189 2190 2191 2192 2182 590 591 592 1575 1576 1577 1578 1579 1580 765 766 767 768 299 1153 1154 1589 1591 1593" id="r_18" />
    <route edges="1186 1184 1182 1180 1178 1176 1174 1172 1170 1276 1274 1272 1270 2191 2192 2182 590 591 592 1575 1576 1577 1578 1579 1580 765 766 767 768 299 771 772 773 774 1564 1565 1566 1567 1568 1569 1570 585 586 587 588 589 430 431 432 433 434 435 436 437 438 439 1561 1562 1563 1482 1483 1484 496 497 498 572 570 568 566 1339 1341 1343 1345 1347 1349 1351 1353 1355 1357 1307 1309 1311 1388 1386 557 558 559 560 561 562 563 564 546 547 548 549 550 551 254 256 258 260 262 264 266 268 1525 1527 1529 1531 1533 1535 1537 1539 1541 1543 1887 1885 1883 1881 1879 1877 1875 1873 1871 1870" id="r_19" /> -->
    <trip id="208_0" depart="20644.00" from="152" to="1675" type="car" />
    <trip id="587_0" depart="21221.00" from="352" to="769" type="car" />
    <trip id="197_0" depart="21581.00" from="1046" to="409" type="car" />
    <trip id="550_0" depart="21996.00" from="2126" to="528" type="car" />
    <trip id="333_0" depart="23144.00" from="1266" to="1897" type="car" />
    <trip id="588_0" depart="23904.00" from="1488" to="119" type="car" />
    <trip id="58_0" depart="23906.00" from="1993" to="1588" type="car" />
    <trip id="183_0" depart="24127.00" from="1424" to="1467" type="car" />
    <trip id="336_0" depart="24507.00" from="1944" to="1695" type="car" />
    <trip id="366_0" depart="24875.00" from="1446" to="868" type="car" />
    <trip id="226_0" depart="25358.00" from="998" to="658" type="car" />
    <trip id="623_0" depart="25395.00" from="1040" to="1568" type="car" />
    <trip id="70_0" depart="25431.00" from="1964" to="1717" type="car" />
    <trip id="55_0" depart="25500.00" from="1613" to="1163" type="car" />
    <trip id="54_0" depart="25654.00" from="1327" to="1351" type="car" />
    <trip id="13_0" depart="25772.00" from="622" to="1057" type="car" />
    <trip id="251_0" depart="25866.00" from="1387" to="93" type="car" />
    <trip id="253_0" depart="25869.00" from="735" to="523" type="car" />
    <trip id="268_0" depart="25984.00" from="1107" to="1593" type="car" />
    <trip id="205_0" depart="26255.00" from="1186" to="1870" type="car" />
    <trip id="261_0" depart="26385.00" from="254" to="1574" type="car" />
    <trip id="157_0" depart="26439.00" from="1406" to="1824" type="car" />
    <trip id="342_0" depart="26498.00" from="1201" to="1487" type="car" />
    <trip id="171_0" depart="26536.00" from="190" to="1381" type="car" />
    <trip id="188_0" depart="26562.00" from="145" to="628" type="car" />
    <trip id="520_0" depart="26577.00" from="304" to="1310" type="car" />
    <trip id="393_0" depart="26614.00" from="1442" to="1669" type="car" />
    <trip id="574_0" depart="26659.00" from="1184" to="1670" type="car" />
    <trip id="233_0" depart="26679.00" from="1792" to="363" type="car" />
    <trip id="136_0" depart="26756.00" from="2169" to="2168" type="car" />
    <trip id="288_0" depart="26792.00" from="528" to="292" type="car" />
    <trip id="481_0" depart="26813.00" from="1094" to="1445" type="car" />
    <trip id="76_0" depart="26846.00" from="724" to="849" type="car" />
    <trip id="613_0" depart="26859.00" from="561" to="1368" type="car" />
    <trip id="167_0" depart="26891.00" from="240" to="865" type="car" />
    <trip id="469_0" depart="26960.00" from="1074" to="653" type="car" />
    <trip id="6_0" depart="26992.00" from="818" to="1364" type="car" />
    <trip id="407_0" depart="27052.00" from="1669" to="1481" type="car" />
    <trip id="303_0" depart="27070.00" from="575" to="281" type="car" />
    <trip id="67_0" depart="27076.00" from="120" to="1579" type="car" />
    <trip id="32_0" depart="27138.00" from="2190" to="1426" type="car" />
    <trip id="404_0" depart="27148.00" from="213" to="2067" type="car" />
    <trip id="363_0" depart="27157.00" from="1885" to="868" type="car" />
    <trip id="488_0" depart="27194.00" from="2061" to="2000" type="car" />
    <trip id="179_0" depart="27210.00" from="917" to="721" type="car" />
    <trip id="600_0" depart="27230.00" from="1133" to="1190" type="car" />
    <trip id="90_0" depart="27230.00" from="1369" to="1608" type="car" />
    <trip id="562_0" depart="27248.00" from="916" to="1811" type="car" />
    <trip id="533_0" depart="27252.00" from="1778" to="1764" type="car" />
    <trip id="597_0" depart="27306.00" from="526" to="1854" type="car" />
    <trip id="559_0" depart="27324.00" from="278" to="92" type="car" />
    <trip id="21_0" depart="27377.00" from="146" to="428" type="car" />
    <trip id="232_0" depart="27544.00" from="1322" to="1252" type="car" />
    <trip id="52_0" depart="27586.00" from="609" to="839" type="car" />
    <trip id="485_0" depart="27587.00" from="1601" to="1328" type="car" />
    <trip id="249_0" depart="27614.00" from="1477" to="1319" type="car" />
    <trip id="507_0" depart="27648.00" from="1514" to="1923" type="car" />
    <trip id="195_0" depart="27687.00" from="263" to="367" type="car" />
    <trip id="341_0" depart="27712.00" from="1991" to="1803" type="car" />
    <trip id="154_0" depart="27717.00" from="46" to="56" type="car" />
    <trip id="513_0" depart="27744.00" from="1173" to="873" type="car" />
    <trip id="568_0" depart="27761.00" from="2018" to="384" type="car" />
    <trip id="162_0" depart="27795.00" from="1236" to="1829" type="car" />
    <trip id="317_0" depart="27843.00" from="428" to="1522" type="car" />
    <trip id="10_0" depart="27932.00" from="1015" to="1325" type="car" />
    <trip id="217_0" depart="27946.00" from="1468" to="574" type="car" />
    <trip id="329_0" depart="27960.00" from="514" to="1433" type="car" />
    <trip id="538_0" depart="27962.00" from="887" to="499" type="car" />
    <trip id="0_0" depart="28038.00" from="855" to="568" type="car" />
    <trip id="609_0" depart="28100.00" from="37" to="1194" type="car" />
    <trip id="147_0" depart="28122.00" from="1934" to="602" type="car" />
    <trip id="487_0" depart="28158.00" from="110" to="380" type="car" />
    <trip id="489_0" depart="28165.00" from="1566" to="553" type="car" />
    <trip id="365_0" depart="28210.00" from="1037" to="655" type="car" />
    <trip id="577_0" depart="28233.00" from="219" to="1207" type="car" />
    <trip id="36_0" depart="28253.00" from="1798" to="1819" type="car" />
    <trip id="198_0" depart="28306.00" from="64" to="1323" type="car" />
    <trip id="279_0" depart="28315.00" from="1427" to="232" type="car" />
    <trip id="9_0" depart="28419.00" from="1582" to="2031" type="car" />
<trip id="490_0" depart="28430.00" from="1726" to="2048" type="car" />
    <trip id="378_0" depart="28451.00" from="482" to="1144" type="car" />
    <trip id="127_0" depart="28530.00" from="1187" to="1671" type="car" />
    <trip id="467_0" depart="28530.00" from="2070" to="1716" type="car" />
    <trip id="18_0" depart="28540.00" from="2151" to="724" type="car" />
    <trip id="213_0" depart="28543.00" from="1763" to="1866" type="car" />
    <trip id="368_0" depart="28646.00" from="2127" to="34" type="car" />
    <trip id="44_0" depart="28647.00" from="1541" to="762" type="car" />
    <trip id="218_0" depart="28729.00" from="685" to="518" type="car" />
    <trip id="383_0" depart="28740.00" from="1623" to="340" type="car" />
    <trip id="614_0" depart="28771.00" from="1543" to="1837" type="car" />
    <trip id="141_0" depart="28829.00" from="720" to="894" type="car" />
    <trip id="312_0" depart="28915.00" from="1405" to="783" type="car" />
    <trip id="440_0" depart="28979.00" from="679" to="2194" type="car" />
    <trip id="215_0" depart="28984.00" from="2120" to="25" type="car" />
    <trip id="182_0" depart="29048.00" from="1675" to="525" type="car" />
    <trip id="462_0" depart="29054.00" from="767" to="1604" type="car" />
    <trip id="502_0" depart="29082.00" from="453" to="335" type="car" />
    <trip id="450_0" depart="29092.00" from="605" to="127" type="car" />
    <trip id="84_0" depart="29114.00" from="1513" to="9" type="car" />
    <trip id="305_0" depart="29171.00" from="1863" to="1590" type="car" />
    <trip id="252_0" depart="29185.00" from="1527" to="1347" type="car" />
    <trip id="381_0" depart="29185.00" from="2176" to="420" type="car" />
    <trip id="384_0" depart="29224.00" from="961" to="866" type="car" />
    <trip id="276_0" depart="29245.00" from="251" to="2" type="car" />
    <trip id="98_0" depart="29249.00" from="1277" to="61" type="car" />
    <trip id="621_0" depart="29254.00" from="1516" to="412" type="car" />
    <trip id="382_0" depart="29256.00" from="1858" to="1630" type="car" />
    <trip id="210_0" depart="29262.00" from="332" to="404" type="car" />
    <trip id="582_0" depart="29315.00" from="576" to="279" type="car" />
    <trip id="515_0" depart="29337.00" from="713" to="2011" type="car" />
    <trip id="373_0" depart="29350.00" from="2031" to="113" type="car" />
    <trip id="285_0" depart="29369.00" from="1771" to="1858" type="car" />
    <trip id="192_0" depart="29408.00" from="1628" to="1209" type="car" />
    <trip id="134_0" depart="29417.00" from="595" to="1156" type="car" />
    <trip id="151_0" depart="29435.00" from="1042" to="1771" type="car" />
    <trip id="117_0" depart="29449.00" from="158" to="1074" type="car" />
    <trip id="344_0" depart="29514.00" from="1833" to="2188" type="car" />
    <trip id="49_0" depart="29516.00" from="339" to="504" type="car" />
    <trip id="3_0" depart="29562.00" from="2069" to="1280" type="car" />
    <trip id="122_0" depart="29564.00" from="416" to="1923" type="car" />
    <trip id="129_0" depart="29564.00" from="1897" to="1499" type="car" />
    <trip id="57_0" depart="29663.00" from="481" to="919" type="car" />
    <trip id="534_0" depart="29669.00" from="258" to="547" type="car" />
    <trip id="168_0" depart="29681.00" from="451" to="332" type="car" />
    <trip id="272_0" depart="29705.00" from="1100" to="1589" type="car" />
    <trip id="379_0" depart="29707.00" from="644" to="1065" type="car" />
    <trip id="410_0" depart="29718.00" from="1029" to="259" type="car" />
    <trip id="456_0" depart="29746.00" from="1103" to="1814" type="car" />
    <trip id="530_0" depart="29762.00" from="1897" to="1704" type="car" />
    <trip id="558_0" depart="29777.00" from="1470" to="1811" type="car" />
    <trip id="556_0" depart="29780.00" from="1563" to="1626" type="car" />
    <trip id="603_0" depart="29784.00" from="1892" to="1539" type="car" />
    <trip id="47_0" depart="29791.00" from="104" to="806" type="car" />
    <trip id="235_0" depart="29807.00" from="1466" to="1106" type="car" />
    <trip id="447_0" depart="29813.00" from="2177" to="1998" type="car" />
    <trip id="246_0" depart="29842.00" from="1829" to="543" type="car" />
    <trip id="433_0" depart="29846.00" from="1094" to="927" type="car" />
    <trip id="290_0" depart="29847.00" from="1116" to="909" type="car" />
    <trip id="140_0" depart="29858.00" from="1213" to="1844" type="car" />
    <trip id="415_0" depart="29874.00" from="14" to="1637" type="car" />
    <trip id="376_0" depart="29909.00" from="1648" to="1194" type="car" />
    <trip id="231_0" depart="29943.00" from="95" to="1314" type="car" />
    <trip id="386_0" depart="29948.00" from="31" to="2022" type="car" />
    <trip id="229_0" depart="29962.00" from="625" to="235" type="car" />
    <trip id="113_0" depart="29985.00" from="1723" to="203" type="car" />
    <trip id="284_0" depart="29997.00" from="432" to="392" type="car" />
    <trip id="271_0" depart="30026.00" from="1284" to="321" type="car" />
    <trip id="316_0" depart="30034.00" from="2152" to="1565" type="car" />
    <trip id="115_0" depart="30053.00" from="741" to="1813" type="car" />
    <trip id="338_0" depart="30075.00" from="1141" to="1099" type="car" />
    <trip id="286_0" depart="30081.00" from="686" to="1896" type="car" />
    <trip id="34_0" depart="30096.00" from="1750" to="619" type="car" />
    <trip id="132_0" depart="30098.00" from="1848" to="809" type="car" />
    <trip id="525_0" depart="30115.00" from="5" to="639" type="car" />
    <trip id="566_0" depart="30146.00" from="336" to="1595" type="car" />
    <trip id="564_0" depart="30159.00" from="1460" to="1779" type="car" />
    <trip id="145_0" depart="30181.00" from="1831" to="1333" type="car" />
    <trip id="326_0" depart="30201.00" from="1784" to="1568" type="car" />
    <trip id="11_0" depart="30228.00" from="400" to="1828" type="car" />
    <trip id="419_0" depart="30249.00" from="1568" to="800" type="car" />
    <trip id="97_0" depart="30261.00" from="424" to="1468" type="car" />
    <trip id="120_0" depart="30268.00" from="1847" to="416" type="car" />
    <trip id="230_0" depart="30277.00" from="1610" to="482" type="car" />
    <trip id="401_0" depart="30279.00" from="1030" to="1089" type="car" />
    <trip id="105_0" depart="30291.00" from="1966" to="1960" type="car" />
    <trip id="45_0" depart="30327.00" from="1036" to="1672" type="car" />
    <trip id="59_0" depart="30335.00" from="1046" to="2143" type="car" />
    <trip id="193_0" depart="30348.00" from="1701" to="1834" type="car" />
    <trip id="300_0" depart="30349.00" from="1808" to="1505" type="car" />
    <trip id="304_0" depart="30382.00" from="1493" to="972" type="car" />
    <trip id="374_0" depart="30392.00" from="1624" to="657" type="car" />
    <trip id="412_0" depart="30418.00" from="1633" to="1520" type="car" />
    <trip id="17_0" depart="30419.00" from="227" to="352" type="car" />
    <trip id="477_0" depart="30427.00" from="284" to="1543" type="car" />
    <trip id="618_0" depart="30459.00" from="1136" to="959" type="car" />
    <trip id="100_0" depart="30463.00" from="1306" to="326" type="car" />
    <trip id="19_0" depart="30481.00" from="1349" to="763" type="car" />
    <trip id="118_0" depart="30495.00" from="1667" to="1815" type="car" />
    <trip id="512_0" depart="30503.00" from="805" to="1950" type="car" />
    <trip id="269_0" depart="30516.00" from="670" to="524" type="car" />
    <trip id="349_0" depart="30528.00" from="269" to="893" type="car" />
    <trip id="189_0" depart="30541.00" from="1643" to="1520" type="car" />
    <trip id="277_0" depart="30565.00" from="1007" to="604" type="car" />
    <trip id="25_0" depart="30573.00" from="504" to="4" type="car" />
    <trip id="414_0" depart="30593.00" from="957" to="366" type="car" />
    <trip id="27_0" depart="30651.00" from="425" to="834" type="car" />
    <trip id="297_0" depart="30654.00" from="498" to="1313" type="car" />
    <trip id="517_0" depart="30656.00" from="1235" to="196" type="car" />
    <trip id="165_0" depart="30677.00" from="2149" to="947" type="car" />
    <trip id="227_0" depart="30703.00" from="1289" to="191" type="car" />
    <trip id="541_0" depart="30716.00" from="882" to="1036" type="car" />
    <trip id="149_0" depart="30725.00" from="721" to="304" type="car" />
    <trip id="430_0" depart="30757.00" from="1513" to="1550" type="car" />
    <trip id="352_0" depart="30761.00" from="1140" to="101" type="car" />
    <trip id="75_0" depart="30778.00" from="1354" to="963" type="car" />
    <trip id="187_0" depart="30787.00" from="1938" to="1413" type="car" />
    <trip id="335_0" depart="30797.00" from="188" to="819" type="car" />
    <trip id="394_0" depart="30801.00" from="1824" to="522" type="car" />
    <trip id="569_0" depart="30810.00" from="80" to="2144" type="car" />
    <trip id="4_0" depart="30831.00" from="197" to="1474" type="car" />
    <trip id="418_0" depart="30852.00" from="647" to="556" type="car" />
    <trip id="24_0" depart="30874.00" from="2026" to="1550" type="car" />
    <trip id="321_0" depart="30879.00" from="1648" to="48" type="car" />
    <trip id="392_0" depart="30889.00" from="636" to="696" type="car" />
    <trip id="584_0" depart="30900.00" from="838" to="1217" type="car" />
    <trip id="287_0" depart="30906.00" from="518" to="383" type="car" />
    <trip id="94_0" depart="30928.00" from="856" to="1352" type="car" />
    <trip id="220_0" depart="30929.00" from="202" to="28" type="car" />
    <trip id="388_0" depart="30937.00" from="1116" to="502" type="car" />
    <trip id="314_0" depart="30954.00" from="863" to="1099" type="car" />
    <trip id="405_0" depart="30956.00" from="1195" to="1282" type="car" />
    <trip id="619_0" depart="30957.00" from="12" to="804" type="car" />
    <trip id="222_0" depart="30959.00" from="1444" to="1162" type="car" />
    <trip id="170_0" depart="30965.00" from="931" to="1154" type="car" />
    <trip id="337_0" depart="30972.00" from="2167" to="1029" type="car" />
    <trip id="274_0" depart="30975.00" from="2091" to="855" type="car" />
    <trip id="259_0" depart="30985.00" from="164" to="377" type="car" />
    <trip id="172_0" depart="30988.00" from="346" to="1097" type="car" />
    <trip id="89_0" depart="30999.00" from="562" to="1293" type="car" />
    <trip id="315_0" depart="31004.00" from="2071" to="147" type="car" />
    <trip id="458_0" depart="31012.00" from="195" to="1287" type="car" />
    <trip id="444_0" depart="31017.00" from="1576" to="1179" type="car" />
    <trip id="581_0" depart="31058.00" from="1999" to="1924" type="car" />
    <trip id="438_0" depart="31066.00" from="1341" to="898" type="car" />
    <trip id="116_0" depart="31076.00" from="520" to="1757" type="car" />
    <trip id="468_0" depart="31096.00" from="811" to="1412" type="car" />
    <trip id="71_0" depart="31096.00" from="367" to="1426" type="car" />
    <trip id="196_0" depart="31116.00" from="1593" to="1027" type="car" />
    <trip id="486_0" depart="31132.00" from="1837" to="1464" type="car" />
    <trip id="506_0" depart="31137.00" from="1709" to="1962" type="car" />
    <trip id="85_0" depart="31138.00" from="2012" to="733" type="car" />
    <trip id="102_0" depart="31157.00" from="863" to="1820" type="car" />
    <trip id="166_0" depart="31162.00" from="857" to="1785" type="car" />
    <trip id="377_0" depart="31162.00" from="1575" to="646" type="car" />
    <trip id="367_0" depart="31167.00" from="1990" to="1251" type="car" />
    <trip id="483_0" depart="31182.00" from="1037" to="365" type="car" />
    <trip id="375_0" depart="31188.00" from="1993" to="409" type="car" />
    <trip id="72_0" depart="31195.00" from="1016" to="210" type="car" />
    <trip id="411_0" depart="31197.00" from="289" to="2132" type="car" />
    <trip id="421_0" depart="31231.00" from="1387" to="1326" type="car" />
    <trip id="473_0" depart="31241.00" from="1738" to="2161" type="car" />
    <trip id="532_0" depart="31262.00" from="1815" to="504" type="car" />
    <trip id="399_0" depart="31272.00" from="1939" to="2029" type="car" />
    <trip id="503_0" depart="31293.00" from="1363" to="1821" type="car" />
    <trip id="575_0" depart="31318.00" from="1930" to="402" type="car" />
    <trip id="236_0" depart="31329.00" from="1210" to="1043" type="car" />
    <trip id="95_0" depart="31329.00" from="1423" to="656" type="car" />
    <trip id="466_0" depart="31339.00" from="860" to="1316" type="car" />
    <trip id="209_0" depart="31354.00" from="638" to="617" type="car" />
    <trip id="308_0" depart="31354.00" from="773" to="1123" type="car" />
    <trip id="323_0" depart="31355.00" from="2035" to="744" type="car" />
    <trip id="424_0" depart="31357.00" from="86" to="758" type="car" />
    <trip id="620_0" depart="31364.00" from="371" to="1659" type="car" />
    <trip id="33_0" depart="31383.00" from="2135" to="642" type="car" />
    <trip id="131_0" depart="31398.00" from="514" to="612" type="car" />
    <trip id="26_0" depart="31398.00" from="48" to="2104" type="car" />
    <trip id="29_0" depart="31413.00" from="1132" to="339" type="car" />
    <trip id="267_0" depart="31421.00" from="1863" to="874" type="car" />
    <trip id="343_0" depart="31453.00" from="1408" to="1736" type="car" />
    <trip id="53_0" depart="31456.00" from="1486" to="1882" type="car" />
    <trip id="397_0" depart="31466.00" from="204" to="31" type="car" />
    <trip id="114_0" depart="31471.00" from="524" to="1214" type="car" />
    <trip id="41_0" depart="31497.00" from="1134" to="497" type="car" />
    <trip id="240_0" depart="31504.00" from="246" to="1238" type="car" />
    <trip id="86_0" depart="31528.00" from="931" to="118" type="car" />
    <trip id="624_0" depart="31538.00" from="1802" to="1538" type="car" />
    <trip id="529_0" depart="31558.00" from="1720" to="2078" type="car" />
    <trip id="611_0" depart="31560.00" from="1796" to="1795" type="car" />
    <trip id="567_0" depart="31566.00" from="1351" to="1483" type="car" />
    <trip id="583_0" depart="31582.00" from="603" to="1821" type="car" />
    <trip id="39_0" depart="31601.00" from="396" to="158" type="car" />
    <trip id="355_0" depart="31604.00" from="1092" to="1872" type="car" />
    <trip id="83_0" depart="31606.00" from="820" to="2182" type="car" />
    <trip id="427_0" depart="31655.00" from="2078" to="55" type="car" />
    <trip id="445_0" depart="31672.00" from="422" to="611" type="car" />
    <trip id="493_0" depart="31696.00" from="1525" to="1926" type="car" />
    <trip id="420_0" depart="31705.00" from="1803" to="840" type="car" />
    <trip id="112_0" depart="31715.00" from="143" to="1824" type="car" />
    <trip id="590_0" depart="31725.00" from="371" to="362" type="car" />
    <trip id="330_0" depart="31728.00" from="542" to="126" type="car" />
    <trip id="69_0" depart="31751.00" from="1915" to="2080" type="car" />
    <trip id="43_0" depart="31752.00" from="1280" to="28" type="car" />
    <trip id="156_0" depart="31759.00" from="1776" to="1689" type="car" />
    <trip id="353_0" depart="31788.00" from="1169" to="1469" type="car" />
    <trip id="554_0" depart="31789.00" from="866" to="1107" type="car" />
    <trip id="408_0" depart="31797.00" from="1711" to="2135" type="car" />
    <trip id="130_0" depart="31809.00" from="1140" to="1926" type="car" />
    <trip id="461_0" depart="31813.00" from="1236" to="1624" type="car" />
    <trip id="48_0" depart="31880.00" from="1869" to="9" type="car" />
    <trip id="436_0" depart="31947.00" from="1218" to="1030" type="car" />
    <trip id="417_0" depart="31959.00" from="1156" to="1883" type="car" />
    <trip id="555_0" depart="31976.00" from="330" to="1089" type="car" />
    <trip id="432_0" depart="31984.00" from="164" to="1708" type="car" />
    <trip id="599_0" depart="32020.00" from="1794" to="647" type="car" />
    <trip id="262_0" depart="32047.00" from="1345" to="514" type="car" />
    <trip id="178_0" depart="32050.00" from="2136" to="2123" type="car" />
    <trip id="431_0" depart="32051.00" from="2058" to="528" type="car" />
    <trip id="439_0" depart="32051.00" from="1030" to="1579" type="car" />
    <trip id="592_0" depart="32064.00" from="637" to="1521" type="car" />
    <trip id="403_0" depart="32076.00" from="893" to="1543" type="car" />
    <trip id="50_0" depart="32112.00" from="412" to="755" type="car" />
    <trip id="161_0" depart="32166.00" from="586" to="764" type="car" />
    <trip id="104_0" depart="32175.00" from="526" to="1950" type="car" />
    <trip id="63_0" depart="32176.00" from="2092" to="1271" type="car" />
    <trip id="202_0" depart="32185.00" from="1679" to="747" type="car" />
    <trip id="292_0" depart="32195.00" from="674" to="2037" type="car" />
    <trip id="133_0" depart="32209.00" from="1617" to="1121" type="car" />
    <trip id="106_0" depart="32229.00" from="1821" to="1373" type="car" />
    <trip id="101_0" depart="32285.00" from="1771" to="1852" type="car" />
    <trip id="46_0" depart="32316.00" from="972" to="1836" type="car" />
    <trip id="169_0" depart="32320.00" from="29" to="107" type="car" />
    <trip id="549_0" depart="32329.00" from="1041" to="1333" type="car" />
    <trip id="362_0" depart="32359.00" from="300" to="2111" type="car" />
    <trip id="586_0" depart="32360.00" from="1743" to="1868" type="car" />
    <trip id="204_0" depart="32375.00" from="1064" to="200" type="car" />
    <trip id="540_0" depart="32375.00" from="278" to="1134" type="car" />
    <trip id="622_0" depart="32380.00" from="451" to="361" type="car" />
    <trip id="455_0" depart="32384.00" from="1871" to="585" type="car" />
    <trip id="585_0" depart="32395.00" from="1989" to="1143" type="car" />
    <trip id="357_0" depart="32413.00" from="222" to="223" type="car" />
    <trip id="453_0" depart="32431.00" from="483" to="1599" type="car" />
    <trip id="602_0" depart="32465.00" from="1462" to="1573" type="car" />
    <trip id="135_0" depart="32469.00" from="1516" to="1933" type="car" />
    <trip id="295_0" depart="32489.00" from="1412" to="1556" type="car" />
    <trip id="275_0" depart="32523.00" from="1623" to="1793" type="car" />