<?xml version="1.0" encoding="UTF-8"?>
<!DOCTYPE network SYSTEM "http://www.matsim.org/files/dtd/network_v2.dtd">
<network>

<!-- ====================================================================== -->

	<nodes>
		<node id="1076629757" x="177374.17900291434" y="4953027.680005782" >
		</node>
		<node id="1076629758" x="177376.20216558885" y="4953034.282824192" >
		</node>
		<node id="1076629761" x="177375.83187828725" y="4953041.1835038485" >
		</node>
		<node id="1076629764" x="177359.71571630915" y="4953056.343948218" >
		</node>
		<node id="1076629766" x="177352.77471208794" y="4953056.301283075" >
		</node>
		<node id="1076629767" x="177346.2641129649" y="4953053.898500694" >
		</node>
		<node id="1076629769" x="177338.08209274284" y="4953044.775097473" >
		</node>
		<node id="1076629770" x="177336.41860304557" y="4953038.054074115" >
		</node>
		<node id="1076629771" x="177337.16260044574" y="4953031.1569711985" >
		</node>
		<node id="1076629776" x="177351.62955225748" y="4953017.34847118" >
		</node>
		<node id="1076629777" x="177358.5620136045" y="4953016.901574154" >
		</node>
		<node id="1076629780" x="177365.2248502092" y="4953018.851311688" >
		</node>
		<node id="1076629789" x="177655.46661274682" y="4952706.229889874" >
		</node>
		<node id="1076629791" x="177656.8253464513" y="4952692.854338512" >
		</node>
		<node id="1076629793" x="177661.55490294" y="4952688.241575751" >
		</node>
		<node id="1076629794" x="177671.95741400134" y="4952686.285372738" >
		</node>
		<node id="1076629795" x="177681.0361821368" y="4952691.722880048" >
		</node>
		<node id="1076629797" x="177684.1725092933" y="4952699.929446657" >
		</node>
		<node id="1076629799" x="177678.934455611" y="4952712.184703059" >
		</node>
		<node id="1076629800" x="177667.29086504597" y="4952715.550367186" >
		</node>
		<node id="122006281" x="178534.1850015677" y="4953237.633429998" >
		</node>
		<node id="122006284" x="178432.6135737172" y="4953308.319840945" >
		</node>
		<node id="1359262854" x="177659.88479401957" y="4952660.696270098" >
		</node>
		<node id="1359262856" x="177642.36988114734" y="4952676.371156436" >
		</node>
		<node id="1419841705" x="177399.50730430405" y="4952993.9181541875" >
		</node>
		<node id="1433716826" x="178571.53321253805" y="4952669.675099545" >
		</node>
		<node id="1433716827" x="178574.2395478777" y="4952694.4848629" >
		</node>
		<node id="1433716828" x="178522.32351325115" y="4952698.229322303" >
		</node>
		<node id="1433716829" x="178530.54018293432" y="4952713.822363413" >
		</node>
		<node id="1433716831" x="178478.3751650959" y="4952717.033933378" >
		</node>
		<node id="1433716849" x="178197.02576891828" y="4952871.885644961" >
		</node>
		<node id="1476164942" x="178199.86404905206" y="4953371.9419070035" >
		</node>
		<node id="1476164945" x="178200.29433644016" y="4953373.55744336" >
		</node>
		<node id="1476164946" x="178200.23065574915" y="4953376.901435912" >
		</node>
		<node id="1476164947" x="178187.25528301793" y="4953378.083214919" >
		</node>
		<node id="1476164948" x="178199.72799291316" y="4953378.296244267" >
		</node>
		<node id="1476164949" x="178189.0392200445" y="4953379.430776684" >
		</node>
		<node id="1476164953" x="178190.95938159834" y="4953380.482006099" >
		</node>
		<node id="1476164955" x="178195.61027848237" y="4953381.307930807" >
		</node>
		<node id="1476164957" x="178412.23785609868" y="4953373.579172572" >
		</node>
		<node id="1476164959" x="178388.13512011716" y="4953379.6916994145" >
		</node>
		<node id="1476164961" x="178436.6043409687" y="4953379.135270431" >
		</node>
		<node id="1476164963" x="178458.64612814347" y="4953394.339746506" >
		</node>
		<node id="1476164965" x="178268.00504343846" y="4953482.954979272" >
		</node>
		<node id="1476164970" x="178269.176083118" y="4953502.45147052" >
		</node>
		<node id="1786899256" x="177343.02483477228" y="4953021.865760028" >
		</node>
		<node id="1786899257" x="177370.32705905044" y="4953050.9468025565" >
		</node>
		<node id="1786899260" x="177695.5349128006" y="4953372.084486807" >
		</node>
		<node id="2021886662" x="177662.93870826112" y="4952611.39998608" >
		</node>
		<node id="2023217212" x="177808.22395562514" y="4952459.152186226" >
		</node>
		<node id="2023217236" x="177729.87960241572" y="4952586.018067543" >
		</node>
		<node id="2023217239" x="177531.77125618618" y="4952603.521077984" >
		</node>
		<node id="2023217240" x="177720.24667848548" y="4952594.951476338" >
		</node>
		<node id="2023217246" x="177751.23068911047" y="4952649.6971336035" >
		</node>
		<node id="2023217247" x="177887.83977829217" y="4952676.975042895" >
		</node>
		<node id="2032810861" x="177892.7352056359" y="4953528.842734417" >
		</node>
		<node id="2035506552" x="178504.1298823523" y="4953254.933066286" >
		</node>
		<node id="2035506554" x="178510.36471280083" y="4953263.620255144" >
		</node>
		<node id="2035506557" x="178460.2138026887" y="4953285.785760296" >
		</node>
		<node id="2035506558" x="178465.71208884852" y="4953294.3648514105" >
		</node>
		<node id="2035506563" x="178331.75222619" y="4953423.171578013" >
		</node>
		<node id="2035506564" x="178311.8951327026" y="4953430.108369889" >
		</node>
		<node id="2035506585" x="178403.86269915942" y="4953507.851631334" >
		</node>
		<node id="2035506603" x="177330.46327915118" y="4953785.813989881" >
		</node>
		<node id="2035506605" x="178517.27889659477" y="4953738.059154684" >
		</node>
		<node id="2035506607" x="177332.26040110644" y="4953808.5533335535" >
		</node>
		<node id="2036365615" x="177566.01825842436" y="4952586.887307672" >
		</node>
		<node id="2036822385" x="177518.2542799957" y="4952614.575471063" >
		</node>
		<node id="2036822398" x="177711.37785185338" y="4952778.962228603" >
		</node>
		<node id="2036822403" x="177584.28122201428" y="4952820.824886476" >
		</node>
		<node id="2036822414" x="177501.72875014116" y="4952903.226508724" >
		</node>
		<node id="2036822451" x="177239.39675597765" y="4952990.299427442" >
		</node>
		<node id="2036822466" x="177387.34932288062" y="4953007.967436013" >
		</node>
		<node id="2036822467" x="177379.3591847818" y="4953006.496083219" >
		</node>
		<node id="2036822471" x="177323.93337879016" y="4953004.2342203865" >
		</node>
		<node id="2036822473" x="177369.5432839666" y="4953013.178635971" >
		</node>
		<node id="2036822475" x="177383.64374990505" y="4953011.749710349" >
		</node>
		<node id="2036822478" x="177362.64328375016" y="4953018.089509386" >
		</node>
		<node id="2036822479" x="177346.46500294306" y="4953019.611254007" >
		</node>
		<node id="2036822480" x="177377.67252690502" y="4953019.498397717" >
		</node>
		<node id="2036822490" x="177337.22580492363" y="4953041.3211555155" >
		</node>
		<node id="2036822491" x="177374.0956802693" y="4953044.611177502" >
		</node>
		<node id="2036822494" x="177372.46048461593" y="4953047.833349843" >
		</node>
		<node id="2036822495" x="177334.25113966077" y="4953051.770899751" >
		</node>
		<node id="2036822496" x="177375.6499489179" y="4953051.215169956" >
		</node>
		<node id="2036822497" x="177348.5884726686" y="4953054.76224738" >
		</node>
		<node id="2036822498" x="177361.8083298487" y="4953055.59340449" >
		</node>
		<node id="2036822499" x="177340.54733640433" y="4953058.627734366" >
		</node>
		<node id="2036822502" x="177377.2752677902" y="4953058.127423014" >
		</node>
		<node id="2036822505" x="177326.82184313564" y="4953061.830939441" >
		</node>
		<node id="2036822510" x="177370.5511562808" y="4953062.739956691" >
		</node>
		<node id="2036822512" x="177331.7162024757" y="4953065.450424346" >
		</node>
		<node id="2036822513" x="177317.6933226764" y="4953074.62638951" >
		</node>
		<node id="2036822528" x="177252.99231313932" y="4953107.796781464" >
		</node>
		<node id="2036822540" x="177267.9913393244" y="4953118.138148196" >
		</node>
		<node id="2036822548" x="177236.40625431936" y="4953138.182018355" >
		</node>
		<node id="2036822551" x="177257.4374786549" y="4953148.355219355" >
		</node>
		<node id="2036822576" x="177139.49268846313" y="4953202.175593151" >
		</node>
		<node id="2036822601" x="177051.73542690388" y="4953266.770409618" >
		</node>
		<node id="2036822603" x="177043.80843777244" y="4953272.590576568" >
		</node>
		<node id="2036822623" x="178099.39049600263" y="4953472.490857516" >
		</node>
		<node id="2036822624" x="178129.74316353945" y="4953479.829538036" >
		</node>
		<node id="2036822625" x="178178.0993685369" y="4953500.914106139" >
		</node>
		<node id="2036822626" x="178155.77189654397" y="4953505.959030484" >
		</node>
		<node id="2037848823" x="178523.25933267368" y="4953808.46361732" >
		</node>
		<node id="2041913883" x="178451.28218181903" y="4952625.3873259025" >
		</node>
		<node id="2041913885" x="178496.0837492075" y="4952641.562744777" >
		</node>
		<node id="2041913898" x="178608.74967278837" y="4952683.745761457" >
		</node>
		<node id="2041913914" x="178150.3262479725" y="4952726.183452518" >
		</node>
		<node id="2041913925" x="178673.44104207528" y="4952707.974080115" >
		</node>
		<node id="2041913951" x="178735.96327279555" y="4952730.95240917" >
		</node>
		<node id="2041914027" x="178546.44193212787" y="4952866.283485786" >
		</node>
		<node id="2041914193" x="178599.28088675917" y="4953170.525318724" >
		</node>
		<node id="2480523072" x="177650.09622971865" y="4952568.8110694615" >
		</node>
		<node id="2480527065" x="177653.72589898808" y="4952577.0263927225" >
		</node>
		<node id="2480527068" x="177665.44064283452" y="4952629.66075195" >
		</node>
		<node id="250854391" x="177580.84067307535" y="4952816.553483893" >
		</node>
		<node id="250854397" x="177664.29692935687" y="4952714.809036414" >
		</node>
		<node id="250854401" x="177662.8389174501" y="4952687.531538271" >
		</node>
		<node id="250854404" x="177656.3102840981" y="4952584.525540094" >
		</node>
		<node id="250854407" x="177641.68643607287" y="4952552.582667652" >
		</node>
		<node id="250854411" x="177670.3800324619" y="4952715.652182825" >
		</node>
		<node id="250854412" x="177683.47272301035" y="4952704.697255013" >
		</node>
		<node id="250854413" x="177683.23235783854" y="4952695.588774969" >
		</node>
		<node id="250857516" x="177633.32349564426" y="4952533.155863301" >
		</node>
		<node id="250857518" x="177562.24362395814" y="4952582.4544187" >
		</node>
		<node id="250857519" x="177482.4074304396" y="4952643.884478649" >
		</node>
		<node id="250857521" x="177414.84050983092" y="4952699.49056568" >
		</node>
		<node id="250857522" x="177262.11347021163" y="4952820.271412504" >
		</node>
		<node id="255384897" x="178537.52846160578" y="4953247.789897363" >
		</node>
		<node id="255384904" x="178444.222341467" y="4953311.449506037" >
		</node>
		<node id="255396465" x="177354.24860265548" y="4954016.480196066" >
		</node>
		<node id="255396511" x="177308.1713666676" y="4953609.796473711" >
		</node>
		<node id="255396512" x="177269.57660166145" y="4953269.1549465405" >
		</node>
		<node id="255396514" x="177255.00054233964" y="4953126.015387914" >
		</node>
		<node id="282504751" x="177887.12204476347" y="4953535.325826286" >
		</node>
		<node id="282504793" x="178146.7092980037" y="4953549.2404891765" >
		</node>
		<node id="282504797" x="178154.87359667668" y="4953533.354023321" >
		</node>
		<node id="282504815" x="178157.17357449076" y="4953525.61107036" >
		</node>
		<node id="282504820" x="178167.24999428698" y="4953497.869547952" >
		</node>
		<node id="282504823" x="178190.18410312955" y="4953501.001679699" >
		</node>
		<node id="282504826" x="178199.69154470606" y="4953499.291302661" >
		</node>
		<node id="282504827" x="178212.11252714606" y="4953494.807497643" >
		</node>
		<node id="282504828" x="178089.11550976895" y="4953467.580307852" >
		</node>
		<node id="282504829" x="177937.17076170945" y="4953270.148631038" >
		</node>
		<node id="282504830" x="178397.40575602092" y="4953351.066546667" >
		</node>
		<node id="282504832" x="178369.69637990586" y="4953389.0965990815" >
		</node>
		<node id="282504833" x="178278.7080198594" y="4953467.766166728" >
		</node>
		<node id="282504834" x="178400.0247341034" y="4953375.702494206" >
		</node>
		<node id="282504836" x="178424.9786428581" y="4953374.547656293" >
		</node>
		<node id="282504837" x="178450.59313782642" y="4953387.602946735" >
		</node>
		<node id="282504838" x="178464.519623138" y="4953404.5482577775" >
		</node>
		<node id="282504839" x="178328.03275751887" y="4953426.51967324" >
		</node>
		<node id="282504840" x="178297.97742138733" y="4953434.544105641" >
		</node>
		<node id="282504841" x="178270.87398254412" y="4953475.462108292" >
		</node>
		<node id="282504842" x="178266.51073416683" y="4953492.194470135" >
		</node>
		<node id="282504844" x="178274.12562438176" y="4953513.251579203" >
		</node>
		<node id="282504847" x="178245.32052917645" y="4953501.079974343" >
		</node>
		<node id="282929873" x="178144.27484633197" y="4953565.119487391" >
		</node>
		<node id="288400466" x="177654.57522888196" y="4952699.047071002" >
		</node>
		<node id="288400509" x="177370.01589152118" y="4953022.153043212" >
		</node>
		<node id="288400512" x="177341.95393879665" y="4953050.517058669" >
		</node>
		<node id="288400515" x="177339.34929263225" y="4953026.247915803" >
		</node>
		<node id="288400516" x="177345.27527039032" y="4953020.138470734" >
		</node>
		<node id="288400573" x="176920.90866513178" y="4953361.0299342945" >
		</node>
		<node id="2917031641" x="178396.44127511274" y="4952556.582691292" >
		</node>
		<node id="2919314665" x="178420.33149964066" y="4952597.820218628" >
		</node>
		<node id="2921138151" x="178386.337420867" y="4953369.458228246" >
		</node>
		<node id="2921138152" x="178265.55538236065" y="4953449.613337703" >
		</node>
		<node id="2921138153" x="178253.45733610785" y="4953472.366309714" >
		</node>
		<node id="2921138154" x="178157.79256930848" y="4953515.078879284" >
		</node>
		<node id="2976099656" x="177268.34053835523" y="4953254.773112799" >
		</node>
		<node id="2976099657" x="177336.2659044364" y="4953188.366951261" >
		</node>
		<node id="2976099658" x="177414.67066801467" y="4953267.455333881" >
		</node>
		<node id="2976104402" x="177280.497353354" y="4953368.778875272" >
		</node>
		<node id="2976104403" x="177464.22075694194" y="4953229.976931562" >
		</node>
		<node id="309108833" x="177666.6995622036" y="4952646.747500248" >
		</node>
		<node id="309131559" x="177677.79203037557" y="4952688.677726605" >
		</node>
		<node id="309131575" x="177630.21850458207" y="4952763.762116154" >
		</node>
		<node id="309131582" x="177371.51976819528" y="4953049.684452731" >
		</node>
		<node id="309131588" x="177281.30639632366" y="4953108.162247891" >
		</node>
		<node id="309133522" x="177258.60112327267" y="4953162.083638138" >
		</node>
		<node id="3115241412" x="177692.0080917164" y="4952693.3686432" >
		</node>
		<node id="3115241413" x="177709.15422259615" y="4952699.750699443" >
		</node>
		<node id="3115241414" x="177690.80525631842" y="4952700.477891054" >
		</node>
		<node id="3115241415" x="177696.4796042887" y="4952697.911554373" >
		</node>
		<node id="3115241416" x="177694.13799699594" y="4952706.569922728" >
		</node>
		<node id="3115241417" x="177681.97752320673" y="4952708.658450143" >
		</node>
		<node id="313539420" x="178661.3283691191" y="4952703.521555985" >
		</node>
		<node id="3301414197" x="177504.94453974976" y="4952907.453424018" >
		</node>
		<node id="3301414198" x="177516.79359304573" y="4952924.74586749" >
		</node>
		<node id="3301414211" x="177544.35475290247" y="4952992.735522538" >
		</node>
		<node id="3301414229" x="177589.36342239677" y="4953050.576933629" >
		</node>
		<node id="3301414254" x="177633.62598635216" y="4953107.9770085905" >
		</node>
		<node id="3301414461" x="177480.61319873377" y="4953134.33292513" >
		</node>
		<node id="3301414466" x="177473.90905833925" y="4953213.434222942" >
		</node>
		<node id="3301414467" x="177469.00756311446" y="4953213.801756599" >
		</node>
		<node id="3301414468" x="177478.42546824832" y="4953215.379995703" >
		</node>
		<node id="3301414469" x="177464.83776388247" y="4953216.404494274" >
		</node>
		<node id="3301414470" x="177481.5169810388" y="4953219.189926542" >
		</node>
		<node id="3301414471" x="177462.35500251316" y="4953220.637865069" >
		</node>
		<node id="3301414472" x="177482.48057090078" y="4953223.99712796" >
		</node>
		<node id="3301414473" x="177462.13103329943" y="4953225.537843927" >
		</node>
		<node id="3301414474" x="177481.08628905745" y="4953228.699477376" >
		</node>
		<node id="3301414475" x="177477.66138533864" y="4953232.21154435" >
		</node>
		<node id="3301414476" x="177468.1359127799" y="4953232.932738696" >
		</node>
		<node id="3301414477" x="177472.9852631627" y="4953233.748244352" >
		</node>
		<node id="359522741" x="178198.43342204578" y="4953369.073351244" >
		</node>
		<node id="359522922" x="178186.38515885687" y="4953377.369368315" >
		</node>
		<node id="359522924" x="178193.1405701124" y="4953381.030228796" >
		</node>
		<node id="359522925" x="178200.27293883427" y="4953375.51845612" >
		</node>
		<node id="359523577" x="177631.91494903312" y="4952664.231680098" >
		</node>
		<node id="359523890" x="177662.09502030478" y="4952657.523425204" >
		</node>
		<node id="359524441" x="177643.71826156892" y="4952678.063304087" >
		</node>
		<node id="359525496" x="178041.6497437557" y="4953410.682813738" >
		</node>
		<node id="359526496" x="177975.3752657721" y="4953461.987273781" >
		</node>
		<node id="359529731" x="177719.5803665169" y="4952772.90652049" >
		</node>
		<node id="359530216" x="177611.28160752996" y="4952853.897589332" >
		</node>
		<node id="359530343" x="177758.68045380514" y="4952825.130915941" >
		</node>
		<node id="359530535" x="177653.6803961557" y="4952907.226100356" >
		</node>
		<node id="359530578" x="177767.8287070982" y="4952817.958968296" >
		</node>
		<node id="359530749" x="177860.75878014998" y="4952746.713720158" >
		</node>
		<node id="359530751" x="177991.13630033977" y="4952889.997355907" >
		</node>
		<node id="359533088" x="177624.52139418683" y="4953313.247978039" >
		</node>
		<node id="359533504" x="177293.88256573852" y="4953497.333910944" >
		</node>
		<node id="359726698" x="177951.0484333455" y="4953073.995186834" >
		</node>
		<node id="359726889" x="177850.9850773742" y="4953151.442204552" >
		</node>
		<node id="359727005" x="178098.7953808289" y="4953376.783739301" >
		</node>
		<node id="359727006" x="177895.6974865736" y="4953114.754672216" >
		</node>
		<node id="359727008" x="177705.26222181437" y="4952866.897860665" >
		</node>
		<node id="359727215" x="178022.44361946656" y="4953280.012853675" >
		</node>
		<node id="359727627" x="178078.24428564578" y="4953237.29425396" >
		</node>
		<node id="359727628" x="178089.9801642109" y="4953226.875513024" >
		</node>
		<node id="359727630" x="178294.02271350712" y="4953061.004883908" >
		</node>
		<node id="359727631" x="178390.54447309783" y="4953142.318732229" >
		</node>
		<node id="359727829" x="178250.75814464962" y="4953332.353800503" >
		</node>
		<node id="359727831" x="178142.89914126846" y="4953190.103236382" >
		</node>
		<node id="359727832" x="177822.22618164966" y="4952775.252841387" >
		</node>
		<node id="359727835" x="177761.7210237116" y="4952695.020624516" >
		</node>
		<node id="359727836" x="177699.74902992166" y="4952696.211465342" >
		</node>
		<node id="359728413" x="177851.0753487901" y="4952661.972622657" >
		</node>
		<node id="359728414" x="177856.80789325834" y="4952683.179092257" >
		</node>
		<node id="359728415" x="177776.87066787772" y="4952695.010203636" >
		</node>
		<node id="359728637" x="177895.0121675096" y="4952675.43658163" >
		</node>
		<node id="359728638" x="177900.23559634306" y="4952673.0711198365" >
		</node>
		<node id="359728639" x="177904.23973216838" y="4952662.202875223" >
		</node>
		<node id="359729668" x="177961.9775992459" y="4953065.086458724" >
		</node>
		<node id="359729669" x="178016.8140243619" y="4953024.353304661" >
		</node>
		<node id="359729670" x="178083.43455288507" y="4952975.259751007" >
		</node>
		<node id="359729959" x="178238.8893014482" y="4953112.69709527" >
		</node>
		<node id="359730280" x="178314.89719932835" y="4953199.264631036" >
		</node>
		<node id="359730282" x="178302.47305690724" y="4953210.073595599" >
		</node>
		<node id="359730430" x="178195.1847834196" y="4953153.051235329" >
		</node>
		<node id="359730520" x="178302.85184252803" y="4953290.033693205" >
		</node>
		<node id="359730967" x="178392.09152861428" y="4953215.1268329425" >
		</node>
		<node id="359731167" x="178245.96014385793" y="4953100.68503184" >
		</node>
		<node id="359731261" x="178176.30927936872" y="4953039.781424028" >
		</node>
		<node id="359731919" x="177250.78695027984" y="4953087.861924117" >
		</node>
		<node id="359732063" x="177264.90881190135" y="4953105.931151657" >
		</node>
		<node id="359736773" x="178013.34449879202" y="4953510.137622246" >
		</node>
		<node id="359737243" x="178359.75680301135" y="4953014.831625093" >
		</node>
		<node id="359739377" x="177806.22011397016" y="4952693.477840912" >
		</node>
		<node id="359740554" x="178172.90968025167" y="4952974.972154364" >
		</node>
		<node id="359740555" x="178191.8017493034" y="4952999.6538892435" >
		</node>
		<node id="359740556" x="178189.11186225252" y="4953030.022418693" >
		</node>
		<node id="359740572" x="178274.5814502234" y="4953076.941128519" >
		</node>
		<node id="359741390" x="178427.58572355658" y="4952611.478920682" >
		</node>
		<node id="359741392" x="178501.2247170466" y="4952768.034097009" >
		</node>
		<node id="359741393" x="178571.01300048834" y="4952920.906319033" >
		</node>
		<node id="359742127" x="178333.14596181066" y="4952594.860528762" >
		</node>
		<node id="359742128" x="178318.2683923446" y="4952602.083337662" >
		</node>
		<node id="359742129" x="178125.7891327103" y="4952743.075816719" >
		</node>
		<node id="359742130" x="178120.52152957214" y="4952748.5391206555" >
		</node>
		<node id="359742131" x="178116.62301101105" y="4952757.865159138" >
		</node>
		<node id="359742132" x="178155.16263382015" y="4952838.282647831" >
		</node>
		<node id="359742133" x="178173.38013872842" y="4952857.240680818" >
		</node>
		<node id="359742134" x="178216.8211117162" y="4952881.845119176" >
		</node>
		<node id="359742136" x="178277.23095151683" y="4952902.296282948" >
		</node>
		<node id="359742138" x="178305.70803151262" y="4952923.304358658" >
		</node>
		<node id="359742141" x="178324.8891363684" y="4952941.357234653" >
		</node>
		<node id="359742147" x="178363.96559080755" y="4953025.757828068" >
		</node>
		<node id="359742149" x="178583.78447095014" y="4952959.012151044" >
		</node>
		<node id="359742197" x="178245.1170328604" y="4952828.762832327" >
		</node>
		<node id="359742221" x="178513.80652215634" y="4952793.866309015" >
		</node>
		<node id="359742418" x="178456.24001992564" y="4952815.47664901" >
		</node>
		<node id="359742421" x="178432.5004653533" y="4952837.372674257" >
		</node>
		<node id="359742423" x="178238.5638221589" y="4952888.299909177" >
		</node>
		<node id="359873735" x="177265.26104714454" y="4953225.148931764" >
		</node>
		<node id="359873981" x="177232.95775031572" y="4952887.322058252" >
		</node>
		<node id="359874115" x="177110.0110208831" y="4952942.305868783" >
		</node>
		<node id="359874116" x="177084.87626603182" y="4952940.367654643" >
		</node>
		<node id="359874118" x="177062.90425422578" y="4952947.6256781565" >
		</node>
		<node id="359874119" x="177048.00487720117" y="4952959.140171373" >
		</node>
		<node id="359874120" x="177030.51299293642" y="4952990.317450753" >
		</node>
		<node id="359874890" x="176945.17022118502" y="4953505.5442343885" >
		</node>
		<node id="359874936" x="176972.23391134135" y="4953640.7976365015" >
		</node>
		<node id="359875316" x="177137.69362798886" y="4953530.227813734" >
		</node>
		<node id="359875318" x="177157.04741726344" y="4953526.75355817" >
		</node>
		<node id="359875320" x="177176.34915601724" y="4953534.785697806" >
		</node>
		<node id="359875322" x="177190.07205050788" y="4953531.392876642" >
		</node>
		<node id="359875326" x="177242.35760792537" y="4953492.26101525" >
		</node>
		<node id="359875328" x="177255.3878444358" y="4953488.524368493" >
		</node>
		<node id="359875331" x="177265.8666087105" y="4953491.296447334" >
		</node>
		<node id="359875333" x="177287.02204495628" y="4953496.507802505" >
		</node>
		<node id="359875408" x="177236.74241211155" y="4953437.851966468" >
		</node>
		<node id="359875411" x="177100.76424491435" y="4953392.1603876185" >
		</node>
		<node id="359876196" x="177196.0976598836" y="4953528.240479299" >
		</node>
		<node id="359876656" x="177334.27578656492" y="4953828.029984579" >
		</node>
		<node id="359876677" x="176974.07851656328" y="4953324.156825959" >
		</node>
		<node id="359876779" x="176998.79122017632" y="4953466.911360424" >
		</node>
		<node id="359877508" x="178754.72307311028" y="4952737.8469744995" >
		</node>
		<node id="359877513" x="178547.01411541743" y="4952867.557889176" >
		</node>
		<node id="359877552" x="178646.72103790194" y="4952697.656529363" >
		</node>
		<node id="359877554" x="178433.6099048647" y="4952622.147663768" >
		</node>
		<node id="359877640" x="178604.04225925944" y="4953169.898364693" >
		</node>
		<node id="359880469" x="177622.01088692102" y="4952774.32833497" >
		</node>
		<node id="3692251251" x="177299.67315097683" y="4952791.554623702" >
		</node>
		<node id="370043639" x="177341.58899339673" y="4952757.909649319" >
		</node>
		<node id="370043640" x="177332.26020644116" y="4952765.280578291" >
		</node>
		<node id="370304526" x="177254.70067694847" y="4952825.898479483" >
		</node>
		<node id="3857713771" x="177589.81798055547" y="4952827.597405375" >
		</node>
		<node id="3857713772" x="177707.999450462" y="4952975.6390469875" >
		</node>
		<node id="3857713776" x="178036.84826631047" y="4953403.973526797" >
		</node>
		<node id="3857713777" x="177987.27437686606" y="4953339.252659534" >
		</node>
		<node id="386879977" x="178436.68156187923" y="4952783.310615104" >
		</node>
		<node id="386879978" x="178386.40997345845" y="4952700.113451624" >
		</node>
		<node id="386879981" x="178528.96582227154" y="4952744.602694914" >
		</node>
		<node id="386879982" x="178567.77964542364" y="4952823.293520863" >
		</node>
		<node id="386880432" x="178504.32363771583" y="4952644.537539814" >
		</node>
		<node id="386884083" x="178564.56256356626" y="4953175.1169179585" >
		</node>
		<node id="386884084" x="178467.76381989667" y="4953203.648930649" >
		</node>
		<node id="3874893757" x="178034.82024051197" y="4953415.890124957" >
		</node>
		<node id="3878613512" x="177880.50512339373" y="4953529.665002048" >
		</node>
		<node id="3933846167" x="177813.3963567512" y="4952692.017045985" >
		</node>
		<node id="3933846168" x="177802.93017665256" y="4952693.653251295" >
		</node>
		<node id="4078761121" x="177096.6655948928" y="4952939.766502019" >
		</node>
		<node id="4078761122" x="177073.3743740199" y="4952943.059191708" >
		</node>
		<node id="4078761125" x="177055.00827108888" y="4952953.121283742" >
		</node>
		<node id="4078761135" x="177042.03384200245" y="4952966.410334069" >
		</node>
		<node id="4078761138" x="177037.4810723018" y="4952973.431331787" >
		</node>
		<node id="4078764905" x="177047.72575134964" y="4953269.710644069" >
		</node>
		<node id="419052018" x="178523.72157494572" y="4952977.071511277" >
		</node>
		<node id="419052029" x="178504.84776319913" y="4952911.095775165" >
		</node>
		<node id="419052037" x="178458.11446049053" y="4952997.590416145" >
		</node>
		<node id="419052060" x="178434.44078220386" y="4952935.473223721" >
		</node>
		<node id="419052069" x="178406.72495800932" y="4952945.195472228" >
		</node>
		<node id="419052098" x="178558.35801102594" y="4952894.075444073" >
		</node>
		<node id="419087312" x="178195.22892663482" y="4953018.169235152" >
		</node>
		<node id="419107927" x="177904.37891613343" y="4952668.176005869" >
		</node>
		<node id="419107929" x="177717.29834773944" y="4952697.138976705" >
		</node>
		<node id="419107936" x="177649.2123852435" y="4952666.797475842" >
		</node>
		<node id="419107945" x="177688.45051434432" y="4952713.647048933" >
		</node>
		<node id="419107946" x="177702.77412940445" y="4952701.8734221645" >
		</node>
		<node id="419113459" x="178198.25116341672" y="4953380.396673347" >
		</node>
		<node id="419115638" x="178076.8699830239" y="4953456.309182364" >
		</node>
		<node id="419115639" x="178111.41179081186" y="4953475.287520873" >
		</node>
		<node id="420516947" x="177963.32534000173" y="4953471.196995562" >
		</node>
		<node id="420516948" x="177888.6235167571" y="4953375.503362829" >
		</node>
		<node id="420524156" x="177498.33066384296" y="4952898.3739451" >
		</node>
		<node id="420524158" x="177507.9123376814" y="4952912.761807028" >
		</node>
		<node id="420524161" x="177435.8632932002" y="4952959.738741953" >
		</node>
		<node id="420524162" x="177388.71799604478" y="4953005.137226285" >
		</node>
		<node id="420524187" x="177366.24393667816" y="4953054.012981619" >
		</node>
		<node id="420524188" x="177381.05524505983" y="4953069.185958537" >
		</node>
		<node id="420524210" x="177270.1054832682" y="4953130.371313256" >
		</node>
		<node id="420524214" x="177433.70318605285" y="4953115.419131505" >
		</node>
		<node id="420524215" x="177507.00306040858" y="4953203.539119046" >
		</node>
		<node id="420524217" x="177336.2241070111" y="4953062.296160331" >
		</node>
		<node id="420524222" x="177346.57023010444" y="4953072.257910794" >
		</node>
		<node id="420524223" x="177361.77464211173" y="4953083.847604838" >
		</node>
		<node id="420524224" x="177407.7848300315" y="4953118.296344756" >
		</node>