<?xml version="1.0" encoding="UTF-8"?>

<!-- generated on 2022-11-15 15:55:21 by Eclipse SUMO netedit Version 1.14.1
<configuration xmlns:xsi="http://www.w3.org/2001/XMLSchema-instance" xsi:noNamespaceSchemaLocation="http://sumo.dlr.de/xsd/netconvertConfiguration.xsd">

    <input>
        <sumo-net-file value="MASA.net.xml"/>
    </input>

    <output>
        <output-file value="MASA.net.xml"/>
    </output>

    <processing>
        <geometry.min-radius.fix.railways value="false"/>
        <geometry.max-grade.fix value="false"/>
        <offset.disable-normalization value="true"/>
        <lefthand value="false"/>
    </processing>

    <junctions>
        <no-turnarounds value="true"/>
        <junctions.corner-detail value="5"/>
        <junctions.limit-turn-speed value="5.5"/>
        <rectangular-lane-cut value="false"/>
    </junctions>

    <pedestrian>
        <walkingareas value="false"/>
    </pedestrian>

</configuration>
-->

<net version="1.9" junctionCornerDetail="5" limitTurnSpeed="5.50" xmlns:xsi="http://www.w3.org/2001/XMLSchema-instance" xsi:noNamespaceSchemaLocation="http://sumo.dlr.de/xsd/net_file.xsd">

    <location netOffset="-652597.85,-4946246.76" convBoundary="0.00,0.00,1480.28,965.18" origBoundary="652597.85,4946246.76,654078.13,4947211.94" projParameter="!"/>

    <edge id=":1076629757_0" function="internal">
        <lane id=":1076629757_0_0" index="0" speed="6.82" length="5.29" shape="481.64,527.39 480.90,528.45 480.47,529.63 480.35,530.94 480.53,532.36"/>
    </edge>
    <edge id=":1076629757_1" function="internal">
        <lane id=":1076629757_1_0" index="0" speed="16.67" length="5.30" shape="477.33,527.57 478.40,528.94 479.28,529.82 479.98,530.77 480.53,532.36"/>
        <lane id=":1076629757_1_1" index="1" speed="16.67" length="5.30" shape="474.64,529.30 475.54,530.40 476.31,531.07 476.94,531.80 477.41,533.07"/>
    </edge>
    <edge id=":1076629771_0" function="internal">
        <lane id=":1076629771_0_0" index="0" speed="12.53" length="9.93" shape="434.52,532.95 435.00,530.06 435.07,528.01 434.59,526.03 433.44,523.36"/>
    </edge>
    <edge id=":1076629771_1" function="internal">
        <lane id=":1076629771_1_0" index="0" speed="13.05" length="9.20" shape="434.52,532.95 435.28,530.21 436.37,528.54 437.93,527.12 440.09,525.10"/>
        <lane id=":1076629771_1_1" index="1" speed="12.11" length="9.20" shape="437.66,533.53 438.36,531.22 439.38,529.86 440.81,528.70 442.70,527.01"/>
    </edge>
    <edge id=":1076629793_0" function="internal">
        <lane id=":1076629793_0_0" index="0" speed="7.56" length="7.53" shape="781.71,208.56 784.14,210.16 786.06,211.22 787.48,211.73 788.39,211.70"/>
        <lane id=":1076629793_0_1" index="1" speed="8.80" length="10.44" shape="780.19,211.40 783.24,213.32 785.86,214.50 788.02,214.92 789.75,214.60"/>
    </edge>
    <edge id=":1076629793_2" function="internal">
        <lane id=":1076629793_2_0" index="0" speed="13.89" length="9.19" shape="780.49,216.66 782.49,214.73 784.06,213.65 785.83,212.83 788.39,211.70"/>
        <lane id=":1076629793_2_1" index="1" speed="13.89" length="9.19" shape="782.31,219.39 784.19,217.55 785.66,216.49 787.32,215.68 789.75,214.60"/>
    </edge>
    <edge id=":1786899256_0" function="internal">
        <lane id=":1786899256_0_0" index="0" speed="7.47" length="8.38" shape="439.98,518.21 441.61,519.54 443.44,520.26 445.46,520.36 447.69,519.85"/>
    </edge>
    <edge id=":1786899256_1" function="internal">
        <lane id=":1786899256_1_0" index="0" speed="16.15" length="8.60" shape="440.23,524.96 442.13,523.01 443.54,521.76 445.17,520.83 447.69,519.85"/>
        <lane id=":1786899256_1_1" index="1" speed="15.11" length="8.60" shape="442.84,526.87 444.52,525.19 445.80,524.17 447.27,523.43 449.49,522.61"/>
    </edge>
    <edge id=":2023217212_0" function="internal">
        <lane id=":2023217212_0_0" index="0" speed="3.65" length="4.67" shape="948.84,0.58 949.15,-0.83 949.75,-1.49 950.64,-1.41 951.82,-0.58"/>
    </edge>
    <edge id=":2023217236_0" function="internal">
        <lane id=":2023217236_0_0" index="0" speed="13.89" length="13.15" shape="856.77,114.70 859.71,116.00 862.49,116.50 865.48,117.20 869.02,119.14"/>
    </edge>
    <edge id=":2023217236_1" function="internal">
        <lane id=":2023217236_1_0" index="0" speed="3.65" length="1.44" shape="856.77,114.70 857.33,116.02"/>
    </edge>
    <edge id=":2023217236_4" function="internal">
        <lane id=":2023217236_4_0" index="0" speed="3.65" length="3.23" shape="857.33,116.02 857.23,116.91 856.46,117.36 855.02,117.38"/>
    </edge>
    <edge id=":2023217236_2" function="internal">
        <lane id=":2023217236_2_0" index="0" speed="5.93" length="9.10" shape="855.37,124.65 857.17,122.74 857.71,120.89 856.99,119.10 855.02,117.38"/>
    </edge>
    <edge id=":2023217236_3" function="internal">
        <lane id=":2023217236_3_0" index="0" speed="8.52" length="12.97" shape="855.37,124.65 858.93,122.21 862.08,120.90 864.81,120.74 867.12,121.72"/>
    </edge>
    <edge id=":2023217240_0" function="internal">
        <lane id=":2023217240_0_0" index="0" speed="13.89" length="10.13" shape="849.71,133.74 848.92,130.92 849.08,128.77 849.21,126.64 848.32,123.87"/>
    </edge>
    <edge id=":2023217240_1" function="internal">
        <lane id=":2023217240_1_0" index="0" speed="6.78" length="8.12" shape="852.60,132.37 852.02,130.42 852.17,128.58 853.05,126.84 854.67,125.21"/>
    </edge>
    <edge id=":2023217247_0" function="internal">
        <lane id=":2023217247_0_0" index="0" speed="13.89" length="8.84" shape="1016.32,224.12 1007.55,225.24"/>
    </edge>
    <edge id=":2023217247_1" function="internal">
        <lane id=":2023217247_1_0" index="0" speed="3.65" length="1.44" shape="1016.32,224.12 1015.02,223.49"/>
    </edge>
    <edge id=":2023217247_6" function="internal">
        <lane id=":2023217247_6_0" index="0" speed="3.65" length="3.23" shape="1015.02,223.49 1014.52,222.75 1014.81,221.90 1015.88,220.95"/>
    </edge>
    <edge id=":2023217247_2" function="internal">
        <lane id=":2023217247_2_0" index="0" speed="12.17" length="8.78" shape="1007.82,218.19 1010.09,219.50 1011.70,220.50 1013.38,221.03 1015.88,220.95"/>
    </edge>
    <edge id=":2023217247_3" function="internal">
        <lane id=":2023217247_3_0" index="0" speed="6.15" length="13.94" shape="1007.82,218.19 1012.04,220.74 1013.40,222.76 1011.90,224.26 1007.55,225.24"/>
    </edge>
    <edge id=":2023217247_4" function="internal">
        <lane id=":2023217247_4_0" index="0" speed="13.89" length="8.80" shape="1007.16,222.06 1015.88,220.95"/>
    </edge>
    <edge id=":2023217247_5" function="internal">
        <lane id=":2023217247_5_0" index="0" speed="3.65" length="1.44" shape="1007.16,222.06 1008.45,222.71"/>
    </edge>
    <edge id=":2023217247_7" function="internal">
        <lane id=":2023217247_7_0" index="0" speed="3.65" length="3.23" shape="1008.45,222.71 1008.94,223.45 1008.65,224.30 1007.55,225.24"/>
    </edge>
    <edge id=":2036822451_0" function="internal">
        <lane id=":2036822451_0_0" index="0" speed="8.33" length="11.68" shape="343.22,493.39 342.67,491.01 341.25,488.84 338.96,486.87 335.79,485.12"/>
    </edge>
    <edge id=":2036822451_1" function="internal">
        <lane id=":2036822451_1_0" index="0" speed="8.33" length="14.95" shape="343.22,493.39 343.08,478.44"/>
    </edge>
    <edge id=":2036822451_2" function="internal">
        <lane id=":2036822451_2_0" index="0" speed="3.65" length="1.44" shape="343.22,493.39 343.96,492.16"/>
    </edge>
    <edge id=":2036822451_9" function="internal">
        <lane id=":2036822451_9_0" index="0" speed="3.65" length="3.23" shape="343.96,492.16 344.75,491.73 345.56,492.09 346.41,493.26"/>
    </edge>
    <edge id=":2036822451_3" function="internal">
        <lane id=":2036822451_3_0" index="0" speed="8.33" length="14.78" shape="346.28,478.48 346.41,493.26"/>
    </edge>
    <edge id=":2036822451_4" function="internal">
        <lane id=":2036822451_4_0" index="0" speed="7.47" length="4.46" shape="346.28,478.48 345.61,482.89"/>
    </edge>
    <edge id=":2036822451_5" function="internal">
        <lane id=":2036822451_5_0" index="0" speed="3.65" length="1.44" shape="346.28,478.48 345.46,479.67"/>
    </edge>
    <edge id=":2036822451_10" function="internal">
        <lane id=":2036822451_10_0" index="0" speed="7.47" length="11.65" shape="345.61,482.89 345.57,483.16 343.58,485.82 340.32,486.48 335.79,485.12"/>
    </edge>
    <edge id=":2036822451_11" function="internal">
        <lane id=":2036822451_11_0" index="0" speed="3.65" length="3.23" shape="345.46,479.67 344.66,480.06 343.86,479.65 343.08,478.44"/>
    </edge>
    <edge id=":2036822451_6" function="internal">
        <lane id=":2036822451_6_0" index="0" speed="5.79" length="9.15" shape="337.12,482.21 339.70,482.98 341.55,482.61 342.67,481.10 343.08,478.44"/>
    </edge>
    <edge id=":2036822451_7" function="internal">
        <lane id=":2036822451_7_0" index="0" speed="8.33" length="15.20" shape="337.12,482.21 341.08,484.44 343.94,487.03 345.72,489.97 346.41,493.26"/>
    </edge>
    <edge id=":2036822451_8" function="internal">
        <lane id=":2036822451_8_0" index="0" speed="3.65" length="4.67" shape="337.12,482.21 337.88,483.44 337.91,484.33 337.21,484.89 335.79,485.12"/>
    </edge>
    <edge id=":2036822466_0" function="internal">
        <lane id=":2036822466_0_0" index="0" speed="15.28" length="8.44" shape="494.33,513.41 492.57,515.18 491.54,516.56 490.49,517.93 488.73,519.70"/>
    </edge>
    <edge id=":2036822467_0" function="internal">
        <lane id=":2036822467_0_0" index="0" speed="16.67" length="6.86" shape="479.01,514.15 480.42,512.77 480.77,511.26 481.05,509.65 482.26,507.98"/>
        <lane id=":2036822467_0_1" index="1" speed="16.67" length="6.86" shape="479.01,514.15 480.68,513.18 481.79,512.47 482.85,511.66 484.33,510.42"/>
    </edge>
    <edge id=":2036822471_0" function="internal">
        <lane id=":2036822471_0_0" index="0" speed="13.89" length="3.35" shape="426.68,508.93 426.24,508.04 425.90,507.45 425.54,506.88 425.01,506.04"/>
    </edge>
    <edge id=":2036822471_1" function="internal">
        <lane id=":2036822471_1_0" index="0" speed="3.87" length="1.68" shape="426.68,508.93 426.43,507.42 426.49,507.28"/>
    </edge>
    <edge id=":2036822471_4" function="internal">
        <lane id=":2036822471_4_0" index="0" speed="3.87" length="3.26" shape="426.49,507.28 426.77,506.54 427.67,506.27 429.16,506.62"/>
    </edge>
    <edge id=":2036822471_2" function="internal">
        <lane id=":2036822471_2_0" index="0" speed="13.89" length="2.68" shape="427.74,504.37 428.13,505.06 428.37,505.56 428.65,506.02 429.16,506.62"/>
    </edge>
    <edge id=":2036822471_3" function="internal">
        <lane id=":2036822471_3_0" index="0" speed="3.65" length="1.44" shape="427.74,504.37 427.68,505.81"/>
    </edge>
    <edge id=":2036822471_5" function="internal">
        <lane id=":2036822471_5_0" index="0" speed="3.65" length="3.23" shape="427.68,505.81 427.21,506.57 426.32,506.64 425.01,506.04"/>
    </edge>
    <edge id=":2036822478_0" function="internal">
        <lane id=":2036822478_0_0" index="0" speed="8.17" length="7.01" shape="466.09,519.29 467.42,519.54 468.98,519.37 470.74,518.78 472.73,517.78"/>
    </edge>
    <edge id=":2036822478_1" function="internal">
        <lane id=":2036822478_1_0" index="0" speed="16.67" length="7.67" shape="466.09,519.29 468.23,520.08 469.67,520.70 471.00,521.52 472.80,522.91"/>
        <lane id=":2036822478_1_1" index="1" speed="16.67" length="7.67" shape="464.98,522.29 467.10,523.10 468.51,523.77 469.81,524.64 471.59,526.04"/>
    </edge>
    <edge id=":2036822490_0" function="internal">
        <lane id=":2036822490_0_0" index="0" speed="16.67" length="12.03" shape="438.47,557.85 436.61,554.79 435.34,552.66 434.43,550.41 433.67,546.95"/>
        <lane id=":2036822490_0_1" index="1" speed="12.99" length="12.03" shape="442.06,556.84 439.56,554.36 438.19,552.31 437.45,549.92 436.83,546.42"/>
    </edge>
    <edge id=":2036822490_2" function="internal">
        <lane id=":2036822490_2_0" index="0" speed="10.19" length="11.11" shape="430.93,557.35 432.51,555.06 433.50,552.56 433.88,549.86 433.67,546.95"/>
    </edge>
    <edge id=":2036822491_0" function="internal">
        <lane id=":2036822491_0_0" index="0" speed="9.97" length="7.54" shape="478.30,554.83 477.40,556.77 477.28,558.28 477.62,559.88 478.09,562.08"/>
    </edge>
    <edge id=":2036822491_1" function="internal">
        <lane id=":2036822491_1_0" index="0" speed="16.67" length="7.72" shape="478.30,554.83 477.16,556.81 476.35,558.17 475.39,559.39 473.77,560.98"/>
        <lane id=":2036822491_1_1" index="1" speed="14.90" length="7.72" shape="475.56,553.18 474.44,555.20 473.66,556.61 472.64,557.80 470.83,559.14"/>
    </edge>
    <edge id=":2036822497_0" function="internal">
        <lane id=":2036822497_0_0" index="0" speed="7.10" length="6.65" shape="446.58,563.97 445.03,563.50 443.46,563.49 441.89,563.94 440.32,564.86"/>
    </edge>
    <edge id=":2036822497_1" function="internal">
        <lane id=":2036822497_1_0" index="0" speed="16.67" length="7.16" shape="446.58,563.97 444.65,563.04 443.38,562.27 442.24,561.33 440.64,559.88"/>
        <lane id=":2036822497_1_1" index="1" speed="16.67" length="7.16" shape="447.91,561.06 446.04,560.14 444.84,559.36 443.75,558.41 442.22,556.98"/>
    </edge>
    <edge id=":2036822498_0" function="internal">
        <lane id=":2036822498_0_0" index="0" speed="7.66" length="7.60" shape="467.70,569.29 465.88,567.81 464.14,566.87 462.49,566.47 460.92,566.63"/>
    </edge>
    <edge id=":2036822498_1" function="internal">
        <lane id=":2036822498_1_0" index="0" speed="16.67" length="8.34" shape="468.83,564.23 466.69,565.39 465.06,565.85 463.35,566.10 460.92,566.63"/>
        <lane id=":2036822498_1_1" index="1" speed="16.67" length="8.34" shape="467.93,561.01 465.79,562.19 464.18,562.70 462.48,563.00 460.06,563.55"/>
    </edge>
    <edge id=":2036822513_0" function="internal">
        <lane id=":2036822513_0_0" index="0" speed="16.67" length="3.33" shape="418.69,577.68 417.83,578.17 417.25,578.52 416.71,578.92 415.93,579.53"/>
    </edge>
    <edge id=":2036822513_1" function="internal">
        <lane id=":2036822513_1_0" index="0" speed="5.34" length="11.01" shape="418.69,577.68 415.17,579.37 413.60,579.43 413.98,577.88 416.31,574.71"/>
    </edge>
    <edge id=":2036822513_2" function="internal">
        <lane id=":2036822513_2_0" index="0" speed="16.67" length="3.32" shape="413.94,577.03 414.71,576.41 415.22,575.96 415.68,575.46 416.31,574.71"/>
    </edge>
    <edge id=":2036822513_3" function="internal">
        <lane id=":2036822513_3_0" index="0" speed="3.65" length="1.44" shape="413.94,577.03 415.38,576.91"/>
    </edge>
    <edge id=":2036822513_4" function="internal">
        <lane id=":2036822513_4_0" index="0" speed="3.65" length="3.23" shape="415.38,576.91 416.19,577.28 416.37,578.16 415.93,579.53"/>
    </edge>
    <edge id=":250854391_0" function="internal">
        <lane id=":250854391_0_0" index="0" speed="6.31" length="9.05" shape="702.35,349.12 700.63,347.28 698.77,346.51 696.78,346.79 694.66,348.14"/>
    </edge>
    <edge id=":250854391_1" function="internal">
        <lane id=":250854391_1_0" index="0" speed="3.65" length="1.44" shape="702.35,349.12 702.33,347.67"/>
    </edge>
    <edge id=":250854391_5" function="internal">
        <lane id=":250854391_5_0" index="0" speed="3.65" length="3.23" shape="702.33,347.67 702.76,346.89 703.65,346.77 704.99,347.30"/>
    </edge>
    <edge id=":250854391_2" function="internal">
        <lane id=":250854391_2_0" index="0" speed="6.84" length="9.52" shape="705.74,338.85 704.10,340.68 703.43,342.70 703.72,344.91 704.99,347.30"/>
    </edge>
    <edge id=":250854391_3" function="internal">
        <lane id=":250854391_3_0" index="0" speed="13.89" length="14.49" shape="705.74,338.85 694.66,348.14"/>
        <lane id=":250854391_3_1" index="1" speed="13.89" length="14.49" shape="703.72,336.37 692.58,345.70"/>
    </edge>
    <edge id=":250854397_0" function="internal">
        <lane id=":250854397_0_0" index="0" speed="6.97" length="6.91" shape="788.42,249.28 786.66,248.93 785.02,249.09 783.50,249.74 782.10,250.89"/>
    </edge>
    <edge id=":250854397_1" function="internal">
        <lane id=":250854397_1_0" index="0" speed="13.89" length="7.06" shape="788.42,249.28 786.33,248.53 784.96,247.86 783.66,247.04 781.78,245.82"/>
        <lane id=":250854397_1_1" index="1" speed="11.76" length="7.06" shape="789.41,246.23 787.52,245.70 786.19,245.30 785.04,244.64 783.68,243.30"/>
    </edge>
    <edge id=":250854401_0" function="internal">
        <lane id=":250854401_0_0" index="0" speed="6.95" length="4.50" shape="788.57,211.61 789.18,210.93 789.65,209.76 790.00,208.50 790.27,207.51"/>
    </edge>
    <edge id=":250854401_1" function="internal">
        <lane id=":250854401_1_0" index="0" speed="13.89" length="4.60" shape="788.57,211.61 789.90,211.13 790.87,211.04 791.89,211.11 793.33,211.10"/>
        <lane id=":250854401_1_1" index="1" speed="13.89" length="4.60" shape="789.93,214.51 791.11,214.11 791.99,214.10 792.90,214.23 794.20,214.26"/>
    </edge>
    <edge id=":250854407_0" function="internal">
        <lane id=":250854407_0_0" index="0" speed="3.65" length="4.67" shape="776.07,81.48 776.33,80.06 776.91,79.38 777.80,79.43 779.01,80.22"/>
    </edge>
    <edge id=":250854411_0" function="internal">
        <lane id=":250854411_0_0" index="0" speed="9.80" length="10.70" shape="797.44,256.03 795.42,253.44 793.55,251.54 791.82,250.34 790.23,249.83"/>
        <lane id=":250854411_0_1" index="1" speed="13.21" length="10.70" shape="799.56,253.49 797.53,250.72 795.86,248.98 793.79,247.77 790.58,246.61"/>
    </edge>
    <edge id=":250854411_2" function="internal">
        <lane id=":250854411_2_0" index="0" speed="13.89" length="10.61" shape="800.88,249.00 797.95,250.22 795.76,250.53 793.46,250.28 790.23,249.83"/>
        <lane id=":250854411_2_1" index="1" speed="10.64" length="10.61" shape="800.34,245.69 797.62,246.98 795.57,247.55 793.45,247.42 790.58,246.61"/>
    </edge>
    <edge id=":250854412_0" function="internal">
        <lane id=":250854412_0_0" index="0" speed="8.11" length="7.82" shape="819.01,235.68 812.42,237.33"/>
        <lane id=":250854412_0_1" index="1" speed="9.19" length="7.82" shape="817.54,232.81 815.92,233.35 813.25,234.30 810.70,235.35 809.42,236.23"/>
    </edge>
    <edge id=":250854412_2" function="internal">
        <lane id=":250854412_2_0" index="0" speed="13.69" length="7.33" shape="813.78,230.03 813.97,232.23 813.77,233.75 813.24,235.23 812.42,237.33"/>
        <lane id=":250854412_2_1" index="1" speed="13.28" length="7.33" shape="810.45,229.33 810.66,231.40 810.56,232.85 810.15,234.26 809.42,236.23"/>
    </edge>
    <edge id=":250857516_0" function="internal">
        <lane id=":250857516_0_0" index="0" speed="3.65" length="4.67" shape="769.83,59.50 771.27,59.58 772.02,60.07 772.08,60.96 771.45,62.26"/>
    </edge>
    <edge id=":250857518_0" function="internal">
        <lane id=":250857518_0_0" index="0" speed="6.93" length="9.55" shape="699.36,111.79 697.49,109.82 695.48,108.80 693.34,108.74 691.07,109.64"/>
    </edge>
    <edge id=":250857518_1" function="internal">
        <lane id=":250857518_1_0" index="0" speed="7.83" length="14.59" shape="699.36,111.79 697.45,108.22 697.23,104.99 698.71,102.11 701.88,99.57"/>
    </edge>
    <edge id=":250857518_2" function="internal">
        <lane id=":250857518_2_0" index="0" speed="3.65" length="4.67" shape="699.36,111.79 699.30,110.35 699.71,109.56 700.59,109.41 701.94,109.90"/>
    </edge>
    <edge id=":250857518_3" function="internal">
        <lane id=":250857518_3_0" index="0" speed="6.30" length="9.04" shape="703.50,102.32 701.54,103.90 700.62,105.69 700.76,107.69 701.94,109.90"/>
    </edge>
    <edge id=":250857518_4" function="internal">
        <lane id=":250857518_4_0" index="0" speed="13.89" length="14.43" shape="703.50,102.32 691.07,109.64"/>
    </edge>
    <edge id=":250857518_5" function="internal">
        <lane id=":250857518_5_0" index="0" speed="3.65" length="1.44" shape="703.50,102.32 702.06,102.24"/>
    </edge>
    <edge id=":250857518_9" function="internal">
        <lane id=":250857518_9_0" index="0" speed="3.65" length="3.23" shape="702.06,102.24 701.31,101.76 701.25,100.86 701.88,99.57"/>
    </edge>
    <edge id=":250857518_6" function="internal">
        <lane id=":250857518_6_0" index="0" speed="13.89" length="14.42" shape="689.45,106.88 701.88,99.57"/>
    </edge>
    <edge id=":250857518_7" function="internal">
        <lane id=":250857518_7_0" index="0" speed="8.36" length="3.90" shape="689.45,106.88 692.92,105.49 693.08,105.49"/>
    </edge>
    <edge id=":250857518_8" function="internal">
        <lane id=":250857518_8_0" index="0" speed="3.65" length="1.44" shape="689.45,106.88 690.89,106.97"/>
    </edge>
    <edge id=":250857518_10" function="internal">
        <lane id=":250857518_10_0" index="0" speed="8.36" length="10.45" shape="693.08,105.49 696.16,105.53 699.16,107.00 701.94,109.90"/>
    </edge>
    <edge id=":250857518_11" function="internal">
        <lane id=":250857518_11_0" index="0" speed="3.65" length="3.23" shape="690.89,106.97 691.64,107.45 691.70,108.34 691.07,109.64"/>
    </edge>
    <edge id=":250857522_0" function="internal">
        <lane id=":250857522_0_0" index="0" speed="13.89" length="0.30" shape="380.70,320.90 380.45,321.06"/>
    </edge>
    <edge id=":250857522_1" function="internal">
        <lane id=":250857522_1_0" index="0" speed="3.65" length="2.34" shape="380.70,320.90 379.26,320.88 378.49,320.43"/>
    </edge>
    <edge id=":250857522_4" function="internal">
        <lane id=":250857522_4_0" index="0" speed="3.65" length="2.34" shape="378.49,320.43 378.38,319.55 378.95,318.22"/>
    </edge>
    <edge id=":250857522_2" function="internal">
        <lane id=":250857522_2_0" index="0" speed="13.89" length="0.29" shape="378.70,318.38 378.95,318.22"/>
    </edge>
    <edge id=":250857522_3" function="internal">
        <lane id=":250857522_3_0" index="0" speed="3.65" length="2.34" shape="378.70,318.38 380.14,318.40 380.92,318.85"/>
    </edge>
    <edge id=":250857522_5" function="internal">
        <lane id=":250857522_5_0" index="0" speed="3.65" length="2.34" shape="380.92,318.85 381.02,319.74 380.45,321.06"/>
    </edge>
    <edge id=":255396512_0" function="internal">
        <lane id=":255396512_0_0" index="0" speed="3.65" length="4.67" shape="355.73,767.39 354.94,768.60 354.15,769.01 353.34,768.62 352.53,767.43"/>
    </edge>
    <edge id=":255396514_0" function="internal">
        <lane id=":255396514_0_0" index="0" speed="5.73" length="9.19" shape="348.86,633.00 348.39,630.31 347.24,628.85 345.39,628.61 342.84,629.60"/>
    </edge>
    <edge id=":255396514_1" function="internal">
        <lane id=":255396514_1_0" index="0" speed="12.50" length="18.23" shape="348.86,633.00 348.21,614.78"/>
    </edge>
    <edge id=":255396514_2" function="internal">
        <lane id=":255396514_2_0" index="0" speed="10.78" length="5.03" shape="348.86,633.00 349.49,628.85 349.83,628.09"/>
    </edge>
    <edge id=":255396514_3" function="internal">
        <lane id=":255396514_3_0" index="0" speed="3.65" length="1.44" shape="348.86,633.00 349.61,631.77"/>
    </edge>
    <edge id=":255396514_16" function="internal">
        <lane id=":255396514_16_0" index="0" speed="10.78" length="12.70" shape="349.83,628.09 351.40,624.54 354.19,620.76 357.44,618.21"/>
    </edge>
    <edge id=":255396514_17" function="internal">
        <lane id=":255396514_17_0" index="0" speed="3.65" length="3.23" shape="349.61,631.77 350.40,631.34 351.21,631.72 352.05,632.89"/>
    </edge>
    <edge id=":255396514_4" function="internal">
        <lane id=":255396514_4_0" index="0" speed="9.78" length="14.48" shape="358.89,621.06 355.79,623.16 353.62,625.83 352.37,629.08 352.05,632.89"/>
    </edge>
    <edge id=":255396514_5" function="internal">
        <lane id=":255396514_5_0" index="0" speed="15.28" length="18.18" shape="358.89,621.06 342.84,629.60"/>
    </edge>
    <edge id=":255396514_6" function="internal">
        <lane id=":255396514_6_0" index="0" speed="7.45" length="4.57" shape="358.89,621.06 354.57,622.56"/>
    </edge>
    <edge id=":255396514_7" function="internal">
        <lane id=":255396514_7_0" index="0" speed="3.65" length="1.44" shape="358.89,621.06 357.46,620.90"/>
    </edge>
    <edge id=":255396514_18" function="internal">
        <lane id=":255396514_18_0" index="0" speed="7.45" length="11.65" shape="354.57,622.56 354.37,622.63 351.08,622.11 349.03,619.49 348.21,614.78"/>
    </edge>
    <edge id=":255396514_19" function="internal">
        <lane id=":255396514_19_0" index="0" speed="3.65" length="3.23" shape="357.46,620.90 356.74,620.36 356.73,619.47 357.44,618.21"/>
    </edge>
    <edge id=":255396514_8" function="internal">
        <lane id=":255396514_8_0" index="0" speed="5.77" length="9.16" shape="351.40,614.66 351.87,617.32 353.03,618.80 354.89,619.10 357.44,618.21"/>
    </edge>
    <edge id=":255396514_9" function="internal">
        <lane id=":255396514_9_0" index="0" speed="12.50" length="18.24" shape="351.40,614.66 352.05,632.89"/>
    </edge>
    <edge id=":255396514_10" function="internal">
        <lane id=":255396514_10_0" index="0" speed="11.01" length="4.97" shape="351.40,614.66 350.77,618.76 350.44,619.51"/>
    </edge>
    <edge id=":255396514_11" function="internal">
        <lane id=":255396514_11_0" index="0" speed="3.65" length="1.44" shape="351.40,614.66 350.65,615.89"/>
    </edge>
    <edge id=":255396514_20" function="internal">
        <lane id=":255396514_20_0" index="0" speed="11.01" length="12.85" shape="350.44,619.51 348.86,623.08 346.09,626.92 342.84,629.60"/>
    </edge>
    <edge id=":255396514_21" function="internal">
        <lane id=":255396514_21_0" index="0" speed="3.65" length="3.23" shape="350.65,615.89 349.86,616.32 349.05,615.95 348.21,614.78"/>
    </edge>
    <edge id=":255396514_12" function="internal">
        <lane id=":255396514_12_0" index="0" speed="10.02" length="14.65" shape="341.29,626.80 344.42,624.55 346.62,621.80 347.88,618.54 348.21,614.78"/>
    </edge>
    <edge id=":255396514_13" function="internal">
        <lane id=":255396514_13_0" index="0" speed="15.28" length="18.29" shape="341.29,626.80 357.44,618.21"/>
    </edge>
    <edge id=":255396514_14" function="internal">
        <lane id=":255396514_14_0" index="0" speed="7.43" length="4.88" shape="341.29,626.80 345.84,625.03"/>
    </edge>
    <edge id=":255396514_15" function="internal">
        <lane id=":255396514_15_0" index="0" speed="3.65" length="1.44" shape="341.29,626.80 342.73,626.92"/>
    </edge>
    <edge id=":255396514_22" function="internal">
        <lane id=":255396514_22_0" index="0" speed="7.43" length="11.56" shape="345.84,625.03 349.15,625.45 351.22,628.07 352.05,632.89"/>
    </edge>
    <edge id=":255396514_23" function="internal">
        <lane id=":255396514_23_0" index="0" speed="3.65" length="3.23" shape="342.73,626.92 343.47,627.42 343.50,628.32 342.84,629.60"/>
    </edge>
    <edge id=":288400466_0" function="internal">
        <lane id=":288400466_0_0" index="0" speed="13.89" length="11.71" shape="774.68,230.16 774.60,226.77 773.96,224.49 772.82,222.31 771.26,219.19"/>
        <lane id=":288400466_0_1" index="1" speed="13.89" length="12.22" shape="774.68,230.16 775.10,226.54 775.53,223.98 775.44,221.53 774.31,218.18"/>
    </edge>
    <edge id=":288400466_2" function="internal">
        <lane id=":288400466_2_0" index="0" speed="12.85" length="12.55" shape="774.68,230.16 774.87,226.31 775.29,223.61 776.45,221.23 778.88,218.35"/>
        <lane id=":288400466_2_1" index="1" speed="12.41" length="12.55" shape="777.88,230.33 778.12,226.78 778.65,224.32 779.87,222.16 782.20,219.51"/>
    </edge>
    <edge id=":288400573_0" function="internal">
        <lane id=":288400573_0_0" index="0" speed="3.65" length="4.67" shape="0.81,834.70 -0.63,834.62 -1.38,834.13 -1.44,833.24 -0.81,831.94"/>
    </edge>
    <edge id=":2976099656_0" function="internal">
        <lane id=":2976099656_0_0" index="0" speed="16.67" length="16.10" shape="352.43,758.53 352.04,742.43"/>
    </edge>
    <edge id=":2976099656_1" function="internal">
        <lane id=":2976099656_1_0" index="0" speed="12.30" length="3.44" shape="352.43,758.53 352.94,755.33 353.02,755.15"/>
    </edge>
    <edge id=":2976099656_2" function="internal">
        <lane id=":2976099656_2_0" index="0" speed="3.65" length="1.44" shape="352.43,758.53 353.21,757.32"/>
    </edge>
    <edge id=":2976099656_9" function="internal">
        <lane id=":2976099656_9_0" index="0" speed="12.30" length="13.13" shape="353.02,755.15 354.54,752.00 357.25,748.53 361.05,744.93"/>
    </edge>
    <edge id=":2976099656_10" function="internal">
        <lane id=":2976099656_10_0" index="0" speed="3.65" length="3.23" shape="353.21,757.32 354.01,756.91 354.81,757.30 355.62,758.49"/>
    </edge>
    <edge id=":2976099656_3" function="internal">
        <lane id=":2976099656_3_0" index="0" speed="11.25" length="13.77" shape="363.11,747.38 359.82,750.46 357.47,753.33 356.07,756.01 355.62,758.49"/>
    </edge>
    <edge id=":2976099656_4" function="internal">
        <lane id=":2976099656_4_0" index="0" speed="7.38" length="18.02" shape="363.11,747.38 358.43,750.43 355.02,750.63 352.89,747.96 352.04,742.43"/>
    </edge>
    <edge id=":2976099656_5" function="internal">
        <lane id=":2976099656_5_0" index="0" speed="3.65" length="4.67" shape="363.11,747.38 361.68,747.54 360.86,747.18 360.65,746.31 361.05,744.93"/>
    </edge>
    <edge id=":2976099656_6" function="internal">
        <lane id=":2976099656_6_0" index="0" speed="5.54" length="9.45" shape="355.24,742.33 355.69,745.24 356.80,746.64 358.59,746.53 361.05,744.93"/>
    </edge>