<?xml version="1.0" encoding="UTF-8"?>

<!-- generated on 2022-11-19 10:31:27 by Eclipse SUMO netedit Version 1.14.1
-->

<additional xmlns:xsi="http://www.w3.org/2001/XMLSchema-instance" xsi:noNamespaceSchemaLocation="http://sumo.dlr.de/xsd/additional_file.xsd">
    
    <!-- Detectors -->
    <e2Detector id="e2_0" lane="193166663_5881193114_250854391_0" pos="62.44" length="19.00" period="300.00" file="e2_0.xml"/>
    <e2Detector id="e2_1" lane="193166663_5881193114_250854391_1" pos="62.89" length="19.00" period="300.00" file="e2_1.xml"/>
    <!-- <e2Detector id="e2_2" lane="35847081_359727836_250854412_0" pos="1.00" length="11.16" period="300.00" file="e2_2.xml"/> -->
</additional>
