<nodes>
	<node id="1076629757" x="653073.95" y="4946781.28" z="0.00" type="priority" />
	<node id="1076629771" x="653036.82" y="4946782.03" z="0.00" type="priority" />
	<node id="1076629793" x="653385.22" y="4946464.23" z="0.00" type="priority" />
	<node id="1786899256" x="653043.34" y="4946773.20" z="0.00" type="priority" />
	<node id="2023217212" x="653548.18" y="4946246.76" z="0.00" type="priority" />
	<node id="2023217236" x="653460.80" y="4946367.40" z="0.00" type="priority" />
	<node id="2023217240" x="653450.55" y="4946375.59" z="0.00" type="priority" />
	<node id="2023217247" x="653611.49" y="4946469.63" z="0.00" type="priority" />
	<node id="2036822451" x="652942.41" y="4946734.13" z="0.00" type="priority" />
	<node id="2036822466" x="653088.52" y="4946762.61" z="0.00" type="priority" />
	<node id="2036822467" x="653080.67" y="4946760.56" z="0.00" type="priority" />
	<node id="2036822471" x="653025.61" y="4946754.23" z="0.00" type="priority" />
	<node id="2036822478" x="653063.16" y="4946770.88" z="0.00" type="priority" />
	<node id="2036822490" x="653036.13" y="4946792.16" z="0.00" type="priority" />
	<node id="2036822491" x="653072.62" y="4946798.15" z="0.00" type="priority" />
	<node id="2036822497" x="653046.46" y="4946806.38" z="0.00" type="priority" />
	<node id="2036822498" x="653059.57" y="4946808.18" z="0.00" type="priority" />
	<node id="2036822513" x="653014.22" y="4946823.90" z="0.00" type="priority" />
	<node id="250854391" x="653295.37" y="4946586.13" z="0.00" type="priority" />
	<node id="250854397" x="653385.99" y="4946490.90" z="0.00" type="priority" />
	<node id="250854401" x="653386.55" y="4946463.61" z="0.00" type="priority" />
	<node id="250854407" x="653375.39" y="4946327.61" z="0.00" type="priority" />
	<node id="250854411" x="653391.99" y="4946492.18" z="0.00" type="priority" />
	<node id="250854412" x="653405.84" y="4946482.23" z="0.00" type="priority" />
	<node id="250857516" x="653368.49" y="4946307.64" z="0.00" type="priority" />
	<node id="250857518" x="653294.05" y="4946351.53" z="0.00" type="priority" />
	<node id="250857522" x="652977.55" y="4946566.40" z="0.00" type="priority" />
	<node id="255396512" x="652951.98" y="4947014.17" z="0.00" type="priority" />
	<node id="255396514" x="652947.98" y="4946870.49" z="0.00" type="traffic_light" />
	<node id="288400466" x="653377.47" y="4946474.48" z="0.00" type="priority" />
	<node id="288400573" x="652597.85" y="4947080.08" z="0.00" type="priority" />
	<node id="2976099656" x="652951.81" y="4946999.76" z="0.00" type="priority" />
	<node id="2976099658" x="653096.67" y="4947023.15" z="0.00" type="priority" />
	<node id="2976104402" x="652955.54" y="4947114.23" z="0.00" type="priority" />
	<node id="2976104403" x="653148.79" y="4946989.45" z="0.00" type="priority" />
	<node id="309108833" x="653393.39" y="4946423.26" z="0.00" type="priority" />
	<node id="309131559" x="653401.36" y="4946465.85" z="0.00" type="priority" />
	<node id="309131588" x="652975.50" y="4946854.64" z="0.00" type="priority" />
	<node id="309133522" x="652948.92" y="4946906.69" z="0.00" type="priority" />
	<node id="3301414198" x="653223.60" y="4946689.21" z="0.00" type="priority" />
	<node id="3301414211" x="653246.07" y="4946758.98" z="0.00" type="priority" />
	<node id="3301414229" x="653286.66" y="4946819.91" z="0.00" type="priority" />
	<node id="3301414254" x="653326.53" y="4946880.36" z="0.00" type="priority" />
	<node id="3301414461" x="653172.15" y="4946895.37" z="0.00" type="priority" />
	<node id="359523577" x="653357.45" y="4946438.13" z="0.00" type="priority" />
	<node id="359524441" x="653368.19" y="4946452.77" z="0.00" type="priority" />
	<node id="359525496" x="653710.80" y="4947211.94" z="0.00" type="priority" />
	<node id="359529731" x="653436.80" y="4946552.84" z="0.00" type="priority" />
	<node id="359530216" x="653322.95" y="4946625.57" z="0.00" type="priority" />
	<node id="359530343" x="653471.92" y="4946607.75" z="0.00" type="priority" />
	<node id="359530535" x="653361.27" y="4946681.82" z="0.00" type="priority" />
	<node id="359530578" x="653481.56" y="4946601.28" z="0.00" type="priority" />
	<node id="359530751" x="653698.75" y="4946689.46" z="0.00" type="priority" />
	<node id="359726698" x="653645.28" y="4946869.83" z="0.00" type="priority" />
	<node id="359726889" x="653539.90" y="4946939.64" z="0.00" type="priority" />
	<node id="359727005" x="653770.22" y="4947182.37" z="0.00" type="priority" />
	<node id="359727006" x="653587.14" y="4946906.37" z="0.00" type="priority" />
	<node id="359727008" x="653415.63" y="4946645.43" z="0.00" type="priority" />
	<node id="359727627" x="653760.00" y="4947041.88" z="0.00" type="priority" />
	<node id="359727628" x="653772.46" y="4947032.36" z="0.00" type="priority" />
	<node id="359727630" x="653987.95" y="4946882.11" z="0.00" type="priority" />
	<node id="359727631" x="654078.13" y="4946970.22" z="0.00" type="priority" />
	<node id="359727829" x="653924.89" y="4947149.27" z="0.00" type="priority" />
	<node id="359727831" x="653827.89" y="4946999.62" z="0.00" type="priority" />
	<node id="359727832" x="653538.90" y="4946562.73" z="0.00" type="priority" />
	<node id="359727835" x="653484.51" y="4946478.34" z="0.00" type="priority" />
	<node id="359727836" x="653422.68" y="4946474.97" z="0.00" type="priority" />
	<node id="359728130" x="653438.87" y="4946353.10" z="0.00" type="priority" />
	<node id="359728413" x="653575.97" y="4946451.98" z="0.00" type="priority" />
	<node id="359728414" x="653580.12" y="4946473.53" z="0.00" type="priority" />
	<node id="359728415" x="653499.61" y="4946479.45" z="0.00" type="priority" />
	<node id="359728637" x="653618.75" y="4946468.63" z="0.00" type="priority" />
	<node id="359728639" x="653628.92" y="4946456.12" z="0.00" type="priority" />
	<node id="359729668" x="653656.83" y="4946861.76" z="0.00" type="priority" />
	<node id="359729669" x="653714.45" y="4946825.21" z="0.00" type="priority" />
	<node id="359729670" x="653784.44" y="4946781.20" z="0.00" type="priority" />
	<node id="359729959" x="653929.22" y="4946929.55" z="0.00" type="priority" />
	<node id="359730282" x="653985.41" y="4947031.25" z="0.00" type="priority" />
	<node id="359730430" x="653882.71" y="4946966.55" z="0.00" type="priority" />
	<node id="359730520" x="653979.91" y="4947110.94" z="0.00" type="priority" />
	<node id="359731167" x="653937.14" y="4946918.11" z="0.00" type="priority" />
	<node id="359731261" x="653872.23" y="4946852.31" z="0.00" type="priority" />
	<node id="359731919" x="652946.59" y="4946832.17" z="0.00" type="priority" />
	<node id="359739377" x="653528.96" y="4946480.08" z="0.00" type="priority" />
	<node id="359740554" x="653873.60" y="4946787.49" z="0.00" type="priority" />
	<node id="359740556" x="653885.70" y="4946843.53" z="0.00" type="priority" />
	<node id="359873981" x="652943.57" y="4946631.06" z="0.00" type="priority" />
	<node id="359874120" x="652734.30" y="4946718.80" z="0.00" type="priority" />
	<node id="370304526" x="652969.75" y="4946571.47" z="0.00" type="priority" />
	<node id="419107929" x="653440.10" y="4946477.19" z="0.00" type="priority" />
	<node id="420524156" x="653207.15" y="4946661.58" z="0.00" type="priority" />
	<node id="420524188" x="653077.75" y="4946823.14" z="0.00" type="priority" />
	<node id="4731177012" x="653199.61" y="4946788.93" z="0.00" type="priority" />
	<node id="4731177013" x="653216.37" y="4946950.34" z="0.00" type="priority" />
	<node id="4731177014" x="653156.69" y="4946906.05" z="0.00" type="priority" />
	<node id="4789931576" x="653204.55" y="4946919.63" z="0.00" type="priority" />
	<node id="5851983802" x="652959.93" y="4946577.88" z="0.00" type="priority" />
	<node id="5851983806" x="653411.74" y="4946325.07" z="0.00" type="priority" />
	<node id="5881180818" x="653398.64" y="4946464.12" z="0.00" type="priority" />
	<node id="5881180819" x="653392.61" y="4946443.06" z="0.00" type="priority" />
	<node id="5881193113" x="653377.34" y="4946476.91" z="0.00" type="priority" />
	<node id="5881193114" x="653363.32" y="4946519.46" z="0.00" type="priority" />
	<node id="5881241908" x="653411.74" y="4946494.14" z="0.00" type="priority" />
	<node id="5881248335" x="653405.40" y="4946483.44" z="0.00" type="priority" />
	<node id="5881314307" x="653366.12" y="4946505.05" z="0.00" type="priority" />
	<node id="6452388533" x="652918.82" y="4946583.97" z="0.00" type="priority" />
	<node id="6452388535" x="652924.42" y="4946576.73" z="0.00" type="priority" />
	<node id="6452388539" x="652942.60" y="4946599.22" z="0.00" type="priority" />
	<node id="6452388545" x="652933.71" y="4946603.20" z="0.00" type="priority" />
	<node id="6452388549" x="652946.98" y="4946590.55" z="0.00" type="priority" />
	<node id="6452388550" x="652943.70" y="4946579.45" z="0.00" type="priority" />
	<node id="6483892906" x="652945.06" y="4946621.88" z="0.00" type="priority" />
	<node id="6485921797" x="652987.30" y="4946691.39" z="0.00" type="priority" />
	<node id="6485921798" x="652942.84" y="4946701.21" z="0.00" type="priority" />
	<node id="6485921800" x="652983.35" y="4946694.97" z="0.00" type="priority" />
	<node id="8887299551" x="653292.13" y="4947070.77" z="0.00" type="priority" />
	<node id="8919680413" x="653196.46" y="4946948.58" z="0.00" type="priority" />
	<node id="8919680414" x="653213.28" y="4946971.01" z="0.00" type="priority" />
	<node id="8919720134" x="653218.93" y="4946964.08" z="0.00" type="priority" />
	<node id="9038148626" x="653530.70" y="4946937.71" z="0.00" type="priority" />
	<node id="9038148627" x="653536.82" y="4946949.27" z="0.00" type="priority" />
	<node id="9038234486" x="653360.23" y="4946515.44" z="0.00" type="priority" />
</nodes>
