<?xml version="1.0" encoding="UTF-8"?>

<!-- generated on 2022-12-05 15:38:08.357439 by matsim_importPlans.py UNKNOWN
  options: -p scenarioMasa/plans.xml <doubleminus>vehicles-only -n ../Sumo/100_Veh/sumo/MASA.net.xml <doubleminus>default-start 0 -o out.rou.xml
-->

<routes xmlns:xsi="http://www.w3.org/2001/XMLSchema-instance" xsi:noNamespaceSchemaLocation="http://sumo.dlr.de/xsd/routes_file.xsd">
    <vType id="car" vClass="passenger"/>
    <vType id="bicycle" vClass="bicycle"/>

    <trip id="0_0" depart="None" from="585" to="135" type="car"/>
    <trip id="0_1" depart="16:50:46" from="135" to="585" type="car"/>
    <trip id="1000_0" depart="None" from="476" to="81" type="car"/>
    <trip id="1000_1" depart="17:55:56" from="81" to="476" type="car"/>
    <trip id="1001_0" depart="None" from="183" to="402" type="car"/>
    <trip id="1001_1" depart="17:26:46" from="402" to="183" type="car"/>
    <trip id="1002_0" depart="None" from="164" to="566" type="car"/>
    <trip id="1002_1" depart="18:43:56" from="566" to="164" type="car"/>
    <trip id="1003_0" depart="None" from="131" to="465" type="car"/>
    <trip id="1003_1" depart="17:27:28" from="465" to="131" type="car"/>
    <trip id="1004_0" depart="None" from="513" to="546" type="car"/>
    <trip id="1004_1" depart="16:32:39" from="546" to="513" type="car"/>
    <trip id="1005_0" depart="None" from="383" to="404" type="car"/>
    <trip id="1005_1" depart="17:18:00" from="404" to="383" type="car"/>
    <trip id="1006_0" depart="None" from="3" to="167" type="car"/>
    <trip id="1006_1" depart="16:31:46" from="167" to="3" type="car"/>
    <trip id="1007_0" depart="None" from="536" to="546" type="car"/>
    <trip id="1007_1" depart="19:21:54" from="546" to="536" type="car"/>
    <trip id="1008_0" depart="None" from="297" to="118" type="car"/>
    <trip id="1008_1" depart="17:36:47" from="118" to="297" type="car"/>
    <trip id="1009_0" depart="None" from="110" to="576" type="car"/>
    <trip id="1009_1" depart="18:53:13" from="576" to="110" type="car"/>
    <trip id="100_0" depart="None" from="256" to="118" type="car"/>
    <trip id="100_1" depart="18:15:13" from="118" to="256" type="car"/>
    <trip id="1010_0" depart="None" from="344" to="177" type="car"/>
    <trip id="1010_1" depart="16:41:42" from="177" to="344" type="car"/>
    <trip id="1011_0" depart="None" from="461" to="54" type="car"/>
    <trip id="1011_1" depart="17:58:25" from="54" to="461" type="car"/>
    <trip id="1012_0" depart="None" from="270" to="165" type="car"/>
    <trip id="1012_1" depart="19:23:08" from="165" to="270" type="car"/>
    <trip id="1013_0" depart="None" from="17" to="262" type="car"/>
    <trip id="1013_1" depart="18:49:55" from="262" to="17" type="car"/>
    <trip id="1014_0" depart="None" from="360" to="628" type="car"/>
    <trip id="1014_1" depart="16:42:16" from="628" to="360" type="car"/>
    <trip id="1015_0" depart="None" from="263" to="358" type="car"/>
    <trip id="1015_1" depart="15:36:05" from="358" to="263" type="car"/>
    <trip id="1016_0" depart="None" from="202" to="188" type="car"/>
    <trip id="1016_1" depart="18:18:14" from="188" to="202" type="car"/>
    <trip id="1017_0" depart="None" from="511" to="447" type="car"/>
    <trip id="1017_1" depart="19:04:59" from="447" to="511" type="car"/>
    <trip id="1018_0" depart="None" from="32" to="571" type="car"/>
    <trip id="1018_1" depart="19:50:15" from="571" to="32" type="car"/>
    <trip id="1019_0" depart="None" from="478" to="547" type="car"/>
    <trip id="1019_1" depart="16:38:52" from="547" to="478" type="car"/>
    <trip id="101_0" depart="None" from="370" to="247" type="car"/>
    <trip id="101_1" depart="20:03:32" from="247" to="370" type="car"/>
    <trip id="1020_0" depart="None" from="458" to="147" type="car"/>
    <trip id="1020_1" depart="18:55:27" from="147" to="458" type="car"/>
    <trip id="1021_0" depart="None" from="200" to="286" type="car"/>
    <trip id="1021_1" depart="18:50:43" from="286" to="200" type="car"/>
    <trip id="1022_0" depart="None" from="14" to="378" type="car"/>
    <trip id="1022_1" depart="17:20:39" from="378" to="14" type="car"/>
    <trip id="1023_0" depart="None" from="325" to="440" type="car"/>
    <trip id="1023_1" depart="17:27:02" from="440" to="325" type="car"/>
    <trip id="1024_0" depart="None" from="64" to="605" type="car"/>
    <trip id="1024_1" depart="17:17:02" from="605" to="64" type="car"/>
    <trip id="1025_0" depart="None" from="566" to="81" type="car"/>
    <trip id="1025_1" depart="18:43:47" from="81" to="566" type="car"/>
    <trip id="1026_0" depart="None" from="579" to="615" type="car"/>
    <trip id="1026_1" depart="17:56:48" from="615" to="579" type="car"/>
    <trip id="1027_0" depart="None" from="210" to="251" type="car"/>
    <trip id="1027_1" depart="16:37:10" from="251" to="210" type="car"/>
    <trip id="1028_0" depart="None" from="349" to="260" type="car"/>
    <trip id="1028_1" depart="18:01:11" from="260" to="349" type="car"/>
    <trip id="1029_0" depart="None" from="389" to="140" type="car"/>
    <trip id="1029_1" depart="17:57:33" from="140" to="389" type="car"/>
    <trip id="102_0" depart="None" from="522" to="271" type="car"/>
    <trip id="102_1" depart="17:14:22" from="271" to="522" type="car"/>
    <trip id="1030_0" depart="None" from="464" to="21" type="car"/>
    <trip id="1030_1" depart="16:56:47" from="21" to="464" type="car"/>
    <trip id="1031_0" depart="None" from="240" to="104" type="car"/>
    <trip id="1031_1" depart="18:57:36" from="104" to="240" type="car"/>
    <trip id="1032_0" depart="None" from="236" to="215" type="car"/>
    <trip id="1032_1" depart="17:32:54" from="215" to="236" type="car"/>
    <trip id="1033_0" depart="None" from="328" to="174" type="car"/>
    <trip id="1033_1" depart="16:28:00" from="174" to="328" type="car"/>
    <trip id="1034_0" depart="None" from="192" to="54" type="car"/>
    <trip id="1034_1" depart="19:36:11" from="54" to="192" type="car"/>
    <trip id="1035_0" depart="None" from="601" to="390" type="car"/>
    <trip id="1035_1" depart="16:58:38" from="390" to="601" type="car"/>
    <trip id="1036_0" depart="None" from="363" to="426" type="car"/>
    <trip id="1036_1" depart="18:18:01" from="426" to="363" type="car"/>
    <trip id="1037_0" depart="None" from="3" to="348" type="car"/>
    <trip id="1037_1" depart="17:36:26" from="348" to="3" type="car"/>
    <trip id="1038_0" depart="None" from="478" to="136" type="car"/>
    <trip id="1038_1" depart="16:12:06" from="136" to="478" type="car"/>
    <trip id="1039_0" depart="None" from="383" to="568" type="car"/>
    <trip id="1039_1" depart="16:37:24" from="568" to="383" type="car"/>
    <trip id="103_0" depart="None" from="129" to="571" type="car"/>
    <trip id="103_1" depart="18:23:34" from="571" to="129" type="car"/>
    <trip id="1040_0" depart="None" from="557" to="513" type="car"/>
    <trip id="1040_1" depart="16:49:58" from="513" to="557" type="car"/>
    <trip id="1041_0" depart="None" from="139" to="382" type="car"/>
    <trip id="1041_1" depart="18:32:09" from="382" to="139" type="car"/>
    <trip id="1042_0" depart="None" from="329" to="275" type="car"/>
    <trip id="1042_1" depart="18:37:46" from="275" to="329" type="car"/>
    <trip id="1043_0" depart="None" from="524" to="237" type="car"/>
    <trip id="1043_1" depart="18:03:54" from="237" to="524" type="car"/>
    <trip id="1044_0" depart="None" from="201" to="335" type="car"/>
    <trip id="1044_1" depart="16:55:53" from="335" to="201" type="car"/>
    <trip id="1045_0" depart="None" from="378" to="116" type="car"/>
    <trip id="1045_1" depart="18:14:39" from="116" to="378" type="car"/>
    <trip id="1046_0" depart="None" from="237" to="498" type="car"/>
    <trip id="1046_1" depart="16:59:34" from="498" to="237" type="car"/>
    <trip id="1047_0" depart="None" from="443" to="551" type="car"/>
    <trip id="1047_1" depart="15:17:36" from="551" to="443" type="car"/>
    <trip id="1048_0" depart="None" from="521" to="111" type="car"/>
    <trip id="1048_1" depart="17:04:33" from="111" to="521" type="car"/>
    <trip id="1049_0" depart="None" from="611" to="412" type="car"/>
    <trip id="1049_1" depart="16:54:20" from="412" to="611" type="car"/>
    <trip id="104_0" depart="None" from="10" to="261" type="car"/>
    <trip id="104_1" depart="16:57:18" from="261" to="10" type="car"/>
    <trip id="1050_0" depart="None" from="130" to="621" type="car"/>
    <trip id="1050_1" depart="17:39:57" from="621" to="130" type="car"/>
    <trip id="1051_0" depart="None" from="589" to="462" type="car"/>
    <trip id="1051_1" depart="17:04:41" from="462" to="589" type="car"/>
    <trip id="1052_0" depart="None" from="377" to="57" type="car"/>
    <trip id="1052_1" depart="18:20:03" from="57" to="377" type="car"/>
    <trip id="1053_0" depart="None" from="61" to="438" type="car"/>
    <trip id="1053_1" depart="17:38:59" from="438" to="61" type="car"/>
    <trip id="1054_0" depart="None" from="433" to="362" type="car"/>
    <trip id="1054_1" depart="18:12:22" from="362" to="433" type="car"/>
    <trip id="1055_0" depart="None" from="442" to="86" type="car"/>
    <trip id="1055_1" depart="19:20:39" from="86" to="442" type="car"/>
    <trip id="1056_0" depart="None" from="222" to="466" type="car"/>
    <trip id="1056_1" depart="18:43:13" from="466" to="222" type="car"/>
    <trip id="1057_0" depart="None" from="525" to="189" type="car"/>
    <trip id="1057_1" depart="18:52:00" from="189" to="525" type="car"/>
    <trip id="1058_0" depart="None" from="125" to="537" type="car"/>
    <trip id="1058_1" depart="19:05:46" from="537" to="125" type="car"/>
    <trip id="1059_0" depart="None" from="529" to="370" type="car"/>
    <trip id="1059_1" depart="18:04:15" from="370" to="529" type="car"/>
    <trip id="105_0" depart="None" from="340" to="301" type="car"/>
    <trip id="105_1" depart="17:46:26" from="301" to="340" type="car"/>
    <trip id="1060_0" depart="None" from="284" to="562" type="car"/>
    <trip id="1060_1" depart="18:27:30" from="562" to="284" type="car"/>
    <trip id="1061_0" depart="None" from="570" to="52" type="car"/>
    <trip id="1061_1" depart="18:58:32" from="52" to="570" type="car"/>
    <trip id="1062_0" depart="None" from="58" to="602" type="car"/>
    <trip id="1062_1" depart="18:48:02" from="602" to="58" type="car"/>
    <trip id="1063_0" depart="None" from="285" to="537" type="car"/>
    <trip id="1063_1" depart="17:01:53" from="537" to="285" type="car"/>
    <trip id="1064_0" depart="None" from="427" to="378" type="car"/>
    <trip id="1064_1" depart="18:52:16" from="378" to="427" type="car"/>
    <trip id="1065_0" depart="None" from="234" to="341" type="car"/>
    <trip id="1065_1" depart="19:15:31" from="341" to="234" type="car"/>
    <trip id="1066_0" depart="None" from="109" to="541" type="car"/>
    <trip id="1066_1" depart="17:01:20" from="541" to="109" type="car"/>
    <trip id="1067_0" depart="None" from="105" to="125" type="car"/>
    <trip id="1067_1" depart="17:42:58" from="125" to="105" type="car"/>
    <trip id="1068_0" depart="None" from="207" to="278" type="car"/>
    <trip id="1068_1" depart="16:55:49" from="278" to="207" type="car"/>
    <trip id="1069_0" depart="None" from="466" to="441" type="car"/>
    <trip id="1069_1" depart="17:14:48" from="441" to="466" type="car"/>
    <trip id="106_0" depart="None" from="505" to="324" type="car"/>
    <trip id="106_1" depart="18:17:39" from="324" to="505" type="car"/>
    <trip id="1070_0" depart="None" from="253" to="387" type="car"/>
    <trip id="1070_1" depart="17:09:26" from="387" to="253" type="car"/>
    <trip id="1071_0" depart="None" from="629" to="630" type="car"/>
    <trip id="1071_1" depart="17:19:09" from="630" to="629" type="car"/>
    <trip id="1072_0" depart="None" from="276" to="264" type="car"/>
    <trip id="1072_1" depart="19:57:32" from="264" to="276" type="car"/>
    <trip id="1073_0" depart="None" from="306" to="275" type="car"/>
    <trip id="1073_1" depart="17:45:11" from="275" to="306" type="car"/>
    <trip id="1074_0" depart="None" from="154" to="216" type="car"/>
    <trip id="1074_1" depart="16:48:26" from="216" to="154" type="car"/>
    <trip id="1075_0" depart="None" from="114" to="472" type="car"/>
    <trip id="1075_1" depart="18:36:27" from="472" to="114" type="car"/>
    <trip id="1076_0" depart="None" from="222" to="341" type="car"/>
    <trip id="1076_1" depart="17:12:51" from="341" to="222" type="car"/>
    <trip id="1077_0" depart="None" from="232" to="290" type="car"/>
    <trip id="1077_1" depart="18:40:19" from="290" to="232" type="car"/>
    <trip id="1078_0" depart="None" from="606" to="613" type="car"/>
    <trip id="1078_1" depart="19:52:03" from="613" to="606" type="car"/>
    <trip id="1079_0" depart="None" from="329" to="130" type="car"/>
    <trip id="1079_1" depart="17:03:02" from="130" to="329" type="car"/>
    <trip id="107_0" depart="None" from="581" to="262" type="car"/>
    <trip id="107_1" depart="16:18:59" from="262" to="581" type="car"/>
    <trip id="1080_0" depart="None" from="407" to="19" type="car"/>
    <trip id="1080_1" depart="17:25:57" from="19" to="407" type="car"/>
    <trip id="1081_0" depart="None" from="265" to="505" type="car"/>
    <trip id="1081_1" depart="19:27:10" from="505" to="265" type="car"/>
    <trip id="1082_0" depart="None" from="85" to="619" type="car"/>
    <trip id="1082_1" depart="17:55:33" from="619" to="85" type="car"/>
    <trip id="1083_0" depart="None" from="539" to="551" type="car"/>
    <trip id="1083_1" depart="17:25:55" from="551" to="539" type="car"/>
    <trip id="1084_0" depart="None" from="182" to="481" type="car"/>
    <trip id="1084_1" depart="18:05:23" from="481" to="182" type="car"/>
    <trip id="1085_0" depart="None" from="132" to="255" type="car"/>
    <trip id="1085_1" depart="17:15:35" from="255" to="132" type="car"/>
    <trip id="1086_0" depart="None" from="106" to="479" type="car"/>
    <trip id="1086_1" depart="17:24:04" from="479" to="106" type="car"/>
    <trip id="1087_0" depart="None" from="29" to="131" type="car"/>
    <trip id="1087_1" depart="18:54:35" from="131" to="29" type="car"/>
    <trip id="1088_0" depart="None" from="291" to="219" type="car"/>
    <trip id="1088_1" depart="16:30:31" from="219" to="291" type="car"/>
    <trip id="1089_0" depart="None" from="150" to="583" type="car"/>
    <trip id="1089_1" depart="18:39:34" from="583" to="150" type="car"/>
    <trip id="108_0" depart="None" from="182" to="548" type="car"/>
    <trip id="108_1" depart="18:10:20" from="548" to="182" type="car"/>
    <trip id="1090_0" depart="None" from="299" to="385" type="car"/>
    <trip id="1090_1" depart="18:35:51" from="385" to="299" type="car"/>
    <trip id="1091_0" depart="None" from="158" to="86" type="car"/>
    <trip id="1091_1" depart="18:15:12" from="86" to="158" type="car"/>
    <trip id="1092_0" depart="None" from="389" to="544" type="car"/>
    <trip id="1092_1" depart="16:52:27" from="544" to="389" type="car"/>
    <trip id="1093_0" depart="None" from="278" to="597" type="car"/>
    <trip id="1093_1" depart="15:50:29" from="597" to="278" type="car"/>
    <trip id="1094_0" depart="None" from="458" to="104" type="car"/>
    <trip id="1094_1" depart="17:56:23" from="104" to="458" type="car"/>
    <trip id="1095_0" depart="None" from="567" to="429" type="car"/>
    <trip id="1095_1" depart="17:32:56" from="429" to="567" type="car"/>
    <trip id="1096_0" depart="None" from="537" to="474" type="car"/>
    <trip id="1096_1" depart="17:12:36" from="474" to="537" type="car"/>
    <trip id="1097_0" depart="None" from="473" to="517" type="car"/>
    <trip id="1097_1" depart="15:17:16" from="517" to="473" type="car"/>
    <trip id="1098_0" depart="None" from="510" to="184" type="car"/>
    <trip id="1098_1" depart="17:19:07" from="184" to="510" type="car"/>
    <trip id="1099_0" depart="None" from="339" to="273" type="car"/>
    <trip id="1099_1" depart="18:23:28" from="273" to="339" type="car"/>
    <trip id="109_0" depart="None" from="209" to="146" type="car"/>
    <trip id="109_1" depart="19:06:26" from="146" to="209" type="car"/>
    <trip id="10_0" depart="None" from="126" to="80" type="car"/>
    <trip id="10_1" depart="17:43:19" from="80" to="126" type="car"/>
    <trip id="1100_0" depart="None" from="30" to="227" type="car"/>
    <trip id="1100_1" depart="17:32:52" from="227" to="30" type="car"/>
    <trip id="1101_0" depart="None" from="54" to="556" type="car"/>
    <trip id="1101_1" depart="16:36:46" from="556" to="54" type="car"/>
    <trip id="1102_0" depart="None" from="359" to="60" type="car"/>
    <trip id="1102_1" depart="19:38:57" from="60" to="359" type="car"/>
    <trip id="1103_0" depart="None" from="623" to="380" type="car"/>
    <trip id="1103_1" depart="18:36:44" from="380" to="623" type="car"/>
    <trip id="1104_0" depart="None" from="567" to="46" type="car"/>
    <trip id="1104_1" depart="17:12:10" from="46" to="567" type="car"/>
    <trip id="1105_0" depart="None" from="199" to="222" type="car"/>
    <trip id="1105_1" depart="17:53:21" from="222" to="199" type="car"/>
    <trip id="1106_0" depart="None" from="496" to="456" type="car"/>
    <trip id="1106_1" depart="16:42:35" from="456" to="496" type="car"/>
    <trip id="1107_0" depart="None" from="147" to="238" type="car"/>
    <trip id="1107_1" depart="18:31:02" from="238" to="147" type="car"/>
    <trip id="1108_0" depart="None" from="308" to="62" type="car"/>
    <trip id="1108_1" depart="17:44:10" from="62" to="308" type="car"/>
    <trip id="1109_0" depart="None" from="144" to="189" type="car"/>
    <trip id="1109_1" depart="18:43:54" from="189" to="144" type="car"/>
    <trip id="110_0" depart="None" from="216" to="378" type="car"/>
    <trip id="110_1" depart="19:47:26" from="378" to="216" type="car"/>
    <trip id="1110_0" depart="None" from="546" to="135" type="car"/>
    <trip id="1110_1" depart="17:02:16" from="135" to="546" type="car"/>
    <trip id="1111_0" depart="None" from="230" to="107" type="car"/>
    <trip id="1111_1" depart="17:19:49" from="107" to="230" type="car"/>
    <trip id="1112_0" depart="None" from="283" to="299" type="car"/>
    <trip id="1112_1" depart="18:36:49" from="299" to="283" type="car"/>
    <trip id="1113_0" depart="None" from="462" to="96" type="car"/>
    <trip id="1113_1" depart="18:32:43" from="96" to="462" type="car"/>
    <trip id="1114_0" depart="None" from="509" to="303" type="car"/>
    <trip id="1114_1" depart="17:39:58" from="303" to="509" type="car"/>
    <trip id="1115_0" depart="None" from="128" to="250" type="car"/>
    <trip id="1115_1" depart="18:13:15" from="250" to="128" type="car"/>
    <trip id="1116_0" depart="None" from="24" to="503" type="car"/>
    <trip id="1116_1" depart="15:53:01" from="503" to="24" type="car"/>
    <trip id="1117_0" depart="None" from="546" to="249" type="car"/>
    <trip id="1117_1" depart="17:44:18" from="249" to="546" type="car"/>
    <trip id="1118_0" depart="None" from="128" to="118" type="car"/>
    <trip id="1118_1" depart="18:21:49" from="118" to="128" type="car"/>
    <trip id="1119_0" depart="None" from="117" to="144" type="car"/>
    <trip id="1119_1" depart="17:25:23" from="144" to="117" type="car"/>
    <trip id="111_0" depart="None" from="346" to="602" type="car"/>
    <trip id="111_1" depart="18:12:16" from="602" to="346" type="car"/>
    <trip id="1120_0" depart="None" from="110" to="588" type="car"/>
    <trip id="1120_1" depart="18:40:03" from="588" to="110" type="car"/>
    <trip id="1121_0" depart="None" from="149" to="7" type="car"/>
    <trip id="1121_1" depart="19:38:44" from="7" to="149" type="car"/>
    <trip id="1122_0" depart="None" from="208" to="390" type="car"/>
    <trip id="1122_1" depart="18:37:10" from="390" to="208" type="car"/>
    <trip id="1123_0" depart="None" from="69" to="581" type="car"/>
    <trip id="1123_1" depart="17:01:05" from="581" to="69" type="car"/>
    <trip id="1124_0" depart="None" from="196" to="468" type="car"/>
    <trip id="1124_1" depart="17:13:14" from="468" to="196" type="car"/>
    <trip id="1125_0" depart="None" from="350" to="211" type="car"/>
    <trip id="1125_1" depart="15:53:49" from="211" to="350" type="car"/>
    <trip id="1126_0" depart="None" from="480" to="372" type="car"/>
    <trip id="1126_1" depart="18:53:01" from="372" to="480" type="car"/>
    <trip id="1127_0" depart="None" from="613" to="387" type="car"/>
    <trip id="1127_1" depart="19:42:19" from="387" to="613" type="car"/>
    <trip id="1128_0" depart="None" from="339" to="12" type="car"/>
    <trip id="1128_1" depart="18:40:15" from="12" to="339" type="car"/>
    <trip id="1129_0" depart="None" from="581" to="359" type="car"/>
    <trip id="1129_1" depart="16:53:36" from="359" to="581" type="car"/>
    <trip id="112_0" depart="None" from="245" to="101" type="car"/>
    <trip id="112_1" depart="18:29:49" from="101" to="245" type="car"/>
    <trip id="1130_0" depart="None" from="478" to="586" type="car"/>
    <trip id="1130_1" depart="18:08:28" from="586" to="478" type="car"/>
    <trip id="1131_0" depart="None" from="443" to="259" type="car"/>
    <trip id="1131_1" depart="18:20:55" from="259" to="443" type="car"/>
    <trip id="1132_0" depart="None" from="98" to="461" type="car"/>
    <trip id="1132_1" depart="17:39:49" from="461" to="98" type="car"/>
    <trip id="1133_0" depart="None" from="414" to="239" type="car"/>
    <trip id="1133_1" depart="19:25:54" from="239" to="414" type="car"/>
    <trip id="1134_0" depart="None" from="23" to="524" type="car"/>
    <trip id="1134_1" depart="19:12:49" from="524" to="23" type="car"/>
    <trip id="1135_0" depart="None" from="123" to="429" type="car"/>
    <trip id="1135_1" depart="18:40:45" from="429" to="123" type="car"/>
    <trip id="1136_0" depart="None" from="326" to="272" type="car"/>
    <trip id="1136_1" depart="17:14:08" from="272" to="326" type="car"/>
    <trip id="1137_0" depart="None" from="600" to="241" type="car"/>
    <trip id="1137_1" depart="19:06:52" from="241" to="600" type="car"/>
    <trip id="1138_0" depart="None" from="548" to="228" type="car"/>
    <trip id="1138_1" depart="19:02:04" from="228" to="548" type="car"/>
    <trip id="1139_0" depart="None" from="603" to="7" type="car"/>
    <trip id="1139_1" depart="18:12:00" from="7" to="603" type="car"/>
    <trip id="113_0" depart="None" from="367" to="324" type="car"/>
    <trip id="113_1" depart="20:14:40" from="324" to="367" type="car"/>
    <trip id="1140_0" depart="None" from="48" to="538" type="car"/>
    <trip id="1140_1" depart="17:45:06" from="538" to="48" type="car"/>
    <trip id="1141_0" depart="None" from="122" to="629" type="car"/>
    <trip id="1141_1" depart="16:47:37" from="629" to="122" type="car"/>
    <trip id="1142_0" depart="None" from="493" to="570" type="car"/>
    <trip id="1142_1" depart="18:21:03" from="570" to="493" type="car"/>
    <trip id="1143_0" depart="None" from="72" to="283" type="car"/>
    <trip id="1143_1" depart="18:07:54" from="283" to="72" type="car"/>
    <trip id="1144_0" depart="None" from="198" to="123" type="car"/>
    <trip id="1144_1" depart="17:39:03" from="123" to="198" type="car"/>
    <trip id="1145_0" depart="None" from="455" to="340" type="car"/>
    <trip id="1145_1" depart="18:51:50" from="340" to="455" type="car"/>
    <trip id="1146_0" depart="None" from="234" to="361" type="car"/>
    <trip id="1146_1" depart="17:44:43" from="361" to="234" type="car"/>
    <trip id="1147_0" depart="None" from="86" to="514" type="car"/>
    <trip id="1147_1" depart="19:03:33" from="514" to="86" type="car"/>
    <trip id="1148_0" depart="None" from="536" to="471" type="car"/>
    <trip id="1148_1" depart="16:54:01" from="471" to="536" type="car"/>
    <trip id="1149_0" depart="None" from="112" to="600" type="car"/>
    <trip id="1149_1" depart="17:39:06" from="600" to="112" type="car"/>
    <trip id="114_0" depart="None" from="141" to="430" type="car"/>
    <trip id="114_1" depart="15:27:15" from="430" to="141" type="car"/>
    <trip id="1150_0" depart="None" from="286" to="509" type="car"/>
    <trip id="1150_1" depart="18:44:24" from="509" to="286" type="car"/>
    <trip id="1151_0" depart="None" from="397" to="207" type="car"/>
    <trip id="1151_1" depart="19:02:59" from="207" to="397" type="car"/>
    <trip id="1152_0" depart="None" from="101" to="476" type="car"/>
    <trip id="1152_1" depart="17:02:27" from="476" to="101" type="car"/>
    <trip id="1153_0" depart="None" from="87" to="133" type="car"/>
    <trip id="1153_1" depart="17:34:36" from="133" to="87" type="car"/>
    <trip id="1154_0" depart="None" from="454" to="295" type="car"/>
    <trip id="1154_1" depart="17:08:42" from="295" to="454" type="car"/>
    <trip id="1155_0" depart="None" from="199" to="70" type="car"/>
    <trip id="1155_1" depart="16:33:04" from="70" to="199" type="car"/>
    <trip id="1156_0" depart="None" from="299" to="406" type="car"/>
    <trip id="1156_1" depart="17:40:57" from="406" to="299" type="car"/>
    <trip id="1157_0" depart="None" from="576" to="144" type="car"/>
    <trip id="1157_1" depart="18:39:48" from="144" to="576" type="car"/>
    <trip id="1158_0" depart="None" from="224" to="231" type="car"/>
    <trip id="1158_1" depart="17:22:36" from="231" to="224" type="car"/>
    <trip id="1159_0" depart="None" from="612" to="19" type="car"/>
    <trip id="1159_1" depart="19:15:41" from="19" to="612" type="car"/>
    <trip id="115_0" depart="None" from="56" to="477" type="car"/>
    <trip id="115_1" depart="16:51:21" from="477" to="56" type="car"/>
    <trip id="1160_0" depart="None" from="466" to="309" type="car"/>
    <trip id="1160_1" depart="17:04:32" from="309" to="466" type="car"/>
    <trip id="1161_0" depart="None" from="470" to="277" type="car"/>
    <trip id="1161_1" depart="17:21:23" from="277" to="470" type="car"/>
    <trip id="1162_0" depart="None" from="624" to="300" type="car"/>
    <trip id="1162_1" depart="17:23:01" from="300" to="624" type="car"/>
    <trip id="1163_0" depart="None" from="331" to="332" type="car"/>
    <trip id="1163_1" depart="18:01:50" from="332" to="331" type="car"/>
    <trip id="1164_0" depart="None" from="457" to="169" type="car"/>
    <trip id="1164_1" depart="17:46:06" from="169" to="457" type="car"/>
    <trip id="1165_0" depart="None" from="365" to="287" type="car"/>
    <trip id="1165_1" depart="16:48:25" from="287" to="365" type="car"/>
    <trip id="1166_0" depart="None" from="349" to="449" type="car"/>
    <trip id="1166_1" depart="17:40:01" from="449" to="349" type="car"/>
    <trip id="1167_0" depart="None" from="287" to="605" type="car"/>
    <trip id="1167_1" depart="18:13:22" from="605" to="287" type="car"/>
    <trip id="1168_0" depart="None" from="331" to="55" type="car"/>
    <trip id="1168_1" depart="18:38:13" from="55" to="331" type="car"/>
    <trip id="1169_0" depart="None" from="309" to="85" type="car"/>
    <trip id="1169_1" depart="18:01:35" from="85" to="309" type="car"/>
    <trip id="116_0" depart="None" from="20" to="367" type="car"/>
    <trip id="116_1" depart="17:58:32" from="367" to="20" type="car"/>
    <trip id="1170_0" depart="None" from="395" to="354" type="car"/>
    <trip id="1170_1" depart="17:15:10" from="354" to="395" type="car"/>
    <trip id="1171_0" depart="None" from="65" to="97" type="car"/>
    <trip id="1171_1" depart="18:26:40" from="97" to="65" type="car"/>
    <trip id="1172_0" depart="None" from="148" to="159" type="car"/>
    <trip id="1172_1" depart="18:55:00" from="159" to="148" type="car"/>
    <trip id="1173_0" depart="None" from="217" to="424" type="car"/>
    <trip id="1173_1" depart="19:19:38" from="424" to="217" type="car"/>
    <trip id="1174_0" depart="None" from="365" to="502" type="car"/>
    <trip id="1174_1" depart="17:53:31" from="502" to="365" type="car"/>
    <trip id="1175_0" depart="None" from="332" to="259" type="car"/>
    <trip id="1175_1" depart="17:05:31" from="259" to="332" type="car"/>
    <trip id="1176_0" depart="None" from="80" to="385" type="car"/>
    <trip id="1176_1" depart="16:13:52" from="385" to="80" type="car"/>
    <trip id="1177_0" depart="None" from="144" to="207" type="car"/>
    <trip id="1177_1" depart="18:45:35" from="207" to="144" type="car"/>
    <trip id="1178_0" depart="None" from="336" to="610" type="car"/>
    <trip id="1178_1" depart="18:51:50" from="610" to="336" type="car"/>
    <trip id="1179_0" depart="None" from="66" to="614" type="car"/>
    <trip id="1179_1" depart="17:55:38" from="614" to="66" type="car"/>
    <trip id="117_0" depart="None" from="513" to="161" type="car"/>
    <trip id="117_1" depart="16:18:49" from="161" to="513" type="car"/>
    <trip id="1180_0" depart="None" from="10" to="493" type="car"/>
    <trip id="1180_1" depart="16:44:25" from="493" to="10" type="car"/>
    <trip id="1181_0" depart="None" from="518" to="371" type="car"/>
    <trip id="1181_1" depart="17:51:05" from="371" to="518" type="car"/>
    <trip id="1182_0" depart="None" from="150" to="113" type="car"/>
    <trip id="1182_1" depart="17:18:10" from="113" to="150" type="car"/>
    <trip id="1183_0" depart="None" from="293" to="485" type="car"/>
    <trip id="1183_1" depart="18:36:24" from="485" to="293" type="car"/>
    <trip id="1184_0" depart="None" from="252" to="527" type="car"/>
    <trip id="1184_1" depart="16:48:20" from="527" to="252" type="car"/>
    <trip id="1185_0" depart="None" from="439" to="246" type="car"/>
    <trip id="1185_1" depart="18:58:34" from="246" to="439" type="car"/>
    <trip id="1186_0" depart="None" from="277" to="390" type="car"/>
    <trip id="1186_1" depart="17:25:58" from="390" to="277" type="car"/>
    <trip id="1187_0" depart="None" from="467" to="235" type="car"/>
    <trip id="1187_1" depart="18:08:36" from="235" to="467" type="car"/>
    <trip id="1188_0" depart="None" from="423" to="217" type="car"/>