<?xml version="1.0" encoding="UTF-8"?>

<!-- generated on 2022-11-30 10:50:08.187680 by randomTrips.py UNKNOWN
<configuration>
    <begin value="0"/>
    <end value="86400"/>
    <net-file value="MASA.net.xml"/>
    <period value="10.0"/>
    <route-file value="MASA.rou.xml"/>
</configuration>
-->

<routes xmlns:xsi="http://www.w3.org/2001/XMLSchema-instance" xsi:noNamespaceSchemaLocation="http://sumo.dlr.de/xsd/routes_file.xsd">
    <trip id="0" depart="0.00" from="441634595_2036822513_2036822490" to="174500800_359727630_359731167"/>
    <trip id="1" depart="10.00" from="305323800_309131588_255396514" to="26323835_2036822478_1076629757"/>
    <trip id="2" depart="20.00" from="495295554_288400573_255396514" to="495295544_250854397_5881193113"/>
    <trip id="3" depart="30.00" from="960705969_8919680413_4731177014" to="191742013_359728413_359728414"/>
    <trip id="4" depart="40.00" from="32048104_359730282_359729959" to="174500800_359727831_359727628"/>
    <trip id="5" depart="50.00" from="26323835_2036822478_1076629757" to="35847068_359739377_359728415"/>
    <trip id="6" depart="60.00" from="174500800_359727630_359731167" to="23584793_255396514_359731919"/>
    <trip id="7" depart="70.00" from="480088113_4731177013_3301414254" to="35847142_419107929_5881241908"/>
    <trip id="8" depart="80.00" from="26323835_2036822478_1076629757" to="35978076_309133522_2976099656"/>
    <trip id="9" depart="90.00" from="688182344_6452388535_6452388550" to="133896681_359727630_359727631"/>
    <trip id="10" depart="100.00" from="688182342_5851983802_370304526" to="495295544_5881248335_250854411"/>
    <trip id="11" depart="110.00" from="32035148_359727832_359530578" to="193166668_6483892906_6485921797"/>
    <trip id="12" depart="120.00" from="976698606_359525496_9038148627" to="32035148_359727832_359530578"/>
    <trip id="13" depart="130.00" from="191742019_2023217240_2023217236" to="191742019_2023217240_2023217236"/>
    <trip id="14" depart="140.00" from="690163997_370304526_250857522" to="383116022_359530216_359530535"/>
    <trip id="15" depart="150.00" from="688182342_5851983802_370304526" to="495295548_1076629757_2036822491"/>
    <trip id="16" depart="160.00" from="35847131_359524441_359523577" to="976698608_9038148626_359726889"/>
    <trip id="17" depart="170.00" from="32047800_359727835_359727832" to="35978053_3301414211_3301414229"/>
    <trip id="18" depart="180.00" from="688182348_6452388550_5851983802" to="383116022_9038148626_359530535"/>
    <trip id="19" depart="190.00" from="691235181_6485921800_6485921798" to="35978076_2976099656_255396512"/>
    <trip id="20" depart="200.00" from="495295546_2036822497_2036822490" to="174500800_359729959_359731167"/>
    <trip id="21" depart="210.00" from="28166525_250854407_309108833" to="32034113_359523577_309108833"/>
    <trip id="22" depart="220.00" from="191742012_2023217236_359728413" to="28166525_309108833_250854407"/>
    <trip id="23" depart="230.00" from="193166663_250854391_420524156" to="305323800_255396514_309131588"/>
    <trip id="24" depart="240.00" from="405724954_359874120_2036822451" to="32047800_359727831_359727829"/>
    <trip id="25" depart="250.00" from="32047800_359727832_359727835" to="23584793_359731919_255396514"/>
    <trip id="26" depart="260.00" from="303682518_420524188_2036822498" to="964314866_8919720134_4731177013"/>
    <trip id="27" depart="270.00" from="480088113_3301414254_4731177013" to="383116022_359530535_359530216"/>
    <trip id="28" depart="280.00" from="200445697_359728637_359728639" to="495295548_1076629757_2036822491"/>
    <trip id="29" depart="290.00" from="193166668_6485921797_6483892906" to="32047800_359727832_359729669"/>
    <trip id="30" depart="300.00" from="976705482_9038234486_5881314307" to="405724954_2036822451_359874120"/>
    <trip id="31" depart="310.00" from="35978053_3301414229_3301414254" to="495295544_250854412_5881248335"/>
    <trip id="32" depart="320.00" from="690163997_250857522_370304526" to="622677478_5881314307_5881193113"/>
    <trip id="33" depart="330.00" from="28166525_250854407_309108833" to="174500800_359727831_359727628"/>
    <trip id="34" depart="340.00" from="32035141_359727008_359530535" to="294039091_2976099658_2976104403"/>
    <trip id="35" depart="350.00" from="23584793_359873981_6485921798" to="967748228_250854401_5881180818"/>
    <trip id="36" depart="360.00" from="960705969_420524188_4731177014" to="32035141_359727008_359530343"/>
    <trip id="37" depart="370.00" from="486372127_4731177012_3301414211" to="32047804_309131559_359727836"/>
    <trip id="38" depart="380.00" from="964314866_8919680413_8919680414" to="323342968_3301414229_3301414461"/>
    <trip id="39" depart="390.00" from="303682518_420524188_2036822498" to="28401360_250857522_250857518"/>
    <trip id="40" depart="400.00" from="35978053_3301414254_3301414229" to="294039091_2976099658_2976104402"/>
    <trip id="41" depart="410.00" from="35978076_309133522_2976099656" to="960705969_8919680413_4731177014"/>
    <trip id="42" depart="420.00" from="32047907_359729668_359726698" to="23584793_6485921798_359873981"/>
    <trip id="43" depart="430.00" from="978138011_359727627_359726698" to="35847068_359739377_359728415"/>
    <trip id="44" depart="440.00" from="191742014_359728413_2023217247" to="174500800_359729959_359731167"/>
    <trip id="45" depart="450.00" from="193166663_420524156_2036822466" to="390221189_2023217247_359728637"/>
    <trip id="46" depart="460.00" from="622683999_5881241908_359530578" to="32047907_359729669_359729670"/>
    <trip id="47" depart="470.00" from="174500828_359529731_250854411" to="32047800_359727835_359727832"/>
    <trip id="48" depart="480.00" from="978138011_359727627_359726698" to="35847131_359523577_250857518"/>
    <trip id="49" depart="490.00" from="976698608_9038148626_359726889" to="691235181_6485921798_6485921800"/>
    <trip id="50" depart="500.00" from="174500774_359728414_359739377" to="495295547_1786899256_2036822478"/>
    <trip id="51" depart="510.00" from="495295544_250854412_5881248335" to="35847131_359523577_359524441"/>
    <trip id="52" depart="520.00" from="303682518_420524188_2036822498" to="405724954_2036822451_359874120"/>
    <trip id="53" depart="530.00" from="193166663_5881193114_250854391" to="32048251_359731167_359740556"/>
    <trip id="54" depart="540.00" from="323342968_3301414229_3301414461" to="976185943_6485921797_6485921800"/>
    <trip id="55" depart="550.00" from="960705969_420524188_4731177014" to="294039091_2976099658_2976104402"/>
    <trip id="56" depart="560.00" from="35847068_359739377_359728415" to="200445697_359728639_359728637"/>
    <trip id="57" depart="570.00" from="964314866_8919680413_4731177013" to="737507800_420524156_3301414198"/>
    <trip id="58" depart="580.00" from="32035141_359530343_359727008" to="390221189_359728637_2023217247"/>
    <trip id="59" depart="590.00" from="383116022_359530535_9038148626" to="193166668_2036822471_6485921797"/>
    <trip id="60" depart="600.00" from="622676076_5881180819_309108833" to="35847131_359524441_359523577"/>
    <trip id="61" depart="610.00" from="622677479_250854397_5881193114" to="35847131_359523577_250857518"/>
    <trip id="62" depart="620.00" from="130070477_2023217212_359728639" to="32035143_359530343_359530578"/>
    <trip id="63" depart="630.00" from="174500800_359727628_359727831" to="964314866_8919680414_8919720134"/>
    <trip id="64" depart="640.00" from="960705969_420524188_4731177014" to="688182348_6452388550_5851983802"/>
    <trip id="65" depart="650.00" from="32035141_359530535_359727008" to="174500800_359731167_359727630"/>
    <trip id="66" depart="660.00" from="960705969_420524188_4731177014" to="967748228_250854401_5881180818"/>
    <trip id="67" depart="670.00" from="191742013_359728413_359728414" to="35847068_359727835_419107929"/>
    <trip id="68" depart="680.00" from="174500828_359530343_359529731" to="622676076_309108833_5881180819"/>
    <trip id="69" depart="690.00" from="622676077_5881180819_5881180818" to="193166664_309131588_2036822513"/>
    <trip id="70" depart="700.00" from="35847026_359728415_2023217240" to="35978053_3301414211_3301414229"/>
    <trip id="71" depart="710.00" from="303682518_420524188_2036822498" to="737507800_420524156_3301414198"/>
    <trip id="72" depart="720.00" from="32048195_359730520_359730430" to="23584793_6485921798_2036822451"/>
    <trip id="73" depart="730.00" from="35847142_419107929_5881241908" to="495295548_1076629757_2036822491"/>
    <trip id="74" depart="740.00" from="23584793_359731919_2036822451" to="32035141_359530535_359727008"/>
    <trip id="75" depart="750.00" from="978138010_359726698_359727006" to="480088113_3301414254_4731177013"/>
    <trip id="76" depart="760.00" from="32048251_359740556_359731167" to="35847068_419107929_359727836"/>
    <trip id="77" depart="770.00" from="193166664_309131588_2036822513" to="26323835_2036822478_1076629757"/>
    <trip id="78" depart="780.00" from="32035148_359727832_359530578" to="35978076_309133522_2976099656"/>
    <trip id="79" depart="790.00" from="28166525_250854407_309108833" to="23584793_6485921798_359873981"/>
    <trip id="80" depart="800.00" from="174500828_359530343_359529731" to="390221189_359728414_2023217247"/>
    <trip id="81" depart="810.00" from="28166525_250854407_309108833" to="964314866_4731177013_8919680413"/>
    <trip id="82" depart="820.00" from="691235181_6485921798_6485921800" to="174500828_359529731_250854411"/>
    <trip id="83" depart="830.00" from="28401360_250857518_250857522" to="495295544_1076629793_250854401"/>
    <trip id="84" depart="840.00" from="23584793_6485921798_2036822451" to="193166665_2036822478_2036822467"/>
    <trip id="85" depart="850.00" from="964314866_8919720134_8919680414" to="35978075_255396514_309133522"/>
    <trip id="86" depart="860.00" from="35847026_359728415_2023217240" to="622683999_359530578_359729668"/>
    <trip id="87" depart="870.00" from="688182342_5851983802_370304526" to="23584793_2036822451_359731919"/>
    <trip id="88" depart="880.00" from="191742020_2023217240_359728130" to="32048195_359730430_359730520"/>
    <trip id="89" depart="890.00" from="32048195_359730520_359730430" to="323342968_3301414461_4731177014"/>
    <trip id="90" depart="900.00" from="495295548_2036822491_2036822498" to="495295544_250854397_5881193113"/>
    <trip id="91" depart="910.00" from="976705481_2036822467_9038234486" to="191742019_2023217240_2023217236"/>
    <trip id="92" depart="920.00" from="32047907_359729668_359726698" to="32035148_359727832_359530578"/>
    <trip id="93" depart="930.00" from="691235181_6485921800_6485921798" to="28401360_250857522_250857518"/>
    <trip id="94" depart="940.00" from="23584793_2036822451_6485921798" to="32048306_359731919_309131588"/>
    <trip id="95" depart="950.00" from="32048104_359730282_359729959" to="305323800_255396514_309131588"/>
    <trip id="96" depart="960.00" from="294038993_2976099656_2976099658" to="964314866_8919680414_8919680413"/>
    <trip id="97" depart="970.00" from="32048306_359731919_309131588" to="691235181_6485921798_6485921800"/>
    <trip id="98" depart="980.00" from="35978053_3301414229_3301414211" to="174500800_359730430_359727831"/>
    <trip id="99" depart="990.00" from="978138011_359727627_359726698" to="688182784_6452388539_6452388545"/>
    <trip id="100" depart="1000.00" from="976698608_9038148626_359726889" to="964314866_8919680414_8919680413"/>
    <trip id="101" depart="1010.00" from="690163997_370304526_250857522" to="193166668_6485921797_6483892906"/>
    <trip id="102" depart="1020.00" from="35847068_359727836_419107929" to="23584793_6485921798_2036822451"/>
    <trip id="103" depart="1030.00" from="32047907_359729668_359726698" to="174500800_359731167_359727630"/>
    <trip id="104" depart="1040.00" from="32047800_359727835_359727832" to="976699097_359727006_359726889"/>
    <trip id="105" depart="1050.00" from="303682518_420524188_2036822498" to="622683999_359530578_359729668"/>
    <trip id="106" depart="1060.00" from="323342968_3301414229_3301414461" to="32047907_359729669_359729670"/>
    <trip id="107" depart="1070.00" from="976698606_359525496_9038148627" to="978138010_359726698_359727006"/>
    <trip id="108" depart="1080.00" from="35978053_3301414229_3301414254" to="495295547_1786899256_2036822478"/>
    <trip id="109" depart="1090.00" from="193166668_6485921797_2036822471" to="32034491_359524441_1076629793"/>
    <trip id="110" depart="1100.00" from="976698608_9038148626_359726889" to="35978076_2976099656_255396512"/>
    <trip id="111" depart="1110.00" from="35847142_419107929_5881241908" to="619244002_2023217236_359728130"/>
    <trip id="112" depart="1120.00" from="174500800_359731167_359727630" to="35978076_2976099656_309133522"/>
    <trip id="113" depart="1130.00" from="35847068_359739377_359728415" to="691042039_6452388545_6452388533"/>
    <trip id="114" depart="1140.00" from="193166668_6485921797_2036822471" to="976185943_6485921800_6485921797"/>
    <trip id="115" depart="1150.00" from="191742012_2023217236_359728413" to="23195995_250854401_5881180819"/>
    <trip id="116" depart="1160.00" from="383116022_359530216_250854391" to="495295544_250854397_5881193113"/>
    <trip id="117" depart="1170.00" from="28401360_250857516_250857518" to="193166663_5881193114_250854391"/>
    <trip id="118" depart="1180.00" from="960705969_8919680413_4731177014" to="28401360_250857522_250857518"/>
    <trip id="119" depart="1190.00" from="383116022_359530216_250854391" to="383116022_9038148626_359530535"/>
    <trip id="120" depart="1200.00" from="32048104_359730282_359729959" to="35978076_2976099656_309133522"/>
    <trip id="121" depart="1210.00" from="35847131_250857518_359523577" to="964314866_8919720134_4731177013"/>
    <trip id="122" depart="1220.00" from="23584793_359731919_255396514" to="495295547_1076629771_1786899256"/>
    <trip id="123" depart="1230.00" from="28401360_250857518_250857522" to="32047804_309131559_359727836"/>
    <trip id="124" depart="1240.00" from="495295544_250854397_5881193113" to="32035131_359530216_359529731"/>
    <trip id="125" depart="1250.00" from="32035141_359727008_359530535" to="619244002_359728130_2023217236"/>
    <trip id="126" depart="1260.00" from="174500828_359726698_359530343" to="323342968_3301414229_3301414461"/>
    <trip id="127" depart="1270.00" from="978138011_359727627_359726698" to="978138010_359726698_359727006"/>
    <trip id="128" depart="1280.00" from="174500828_359726698_359530343" to="23584793_6485921798_2036822451"/>
    <trip id="129" depart="1290.00" from="303682518_420524188_2036822498" to="964314866_8919720134_4731177013"/>
    <trip id="130" depart="1300.00" from="960705969_4731177014_420524188" to="946531060_5881180818_309131559"/>
    <trip id="131" depart="1310.00" from="32047800_359727832_359727835" to="193166668_6483892906_6485921797"/>
    <trip id="132" depart="1320.00" from="688182784_6452388539_6452388545" to="495295545_2036822466_1076629757"/>
    <trip id="133" depart="1330.00" from="383116022_9038148626_359530535" to="976705481_2036822467_9038234486"/>
    <trip id="134" depart="1340.00" from="486372127_4731177012_3301414211" to="133896681_359727630_359727631"/>
    <trip id="135" depart="1350.00" from="688182345_6483892906_6452388545" to="32035131_359530216_359529731"/>
    <trip id="136" depart="1360.00" from="486372136_4789931576_3301414461" to="964314866_8919720134_8919680414"/>
    <trip id="137" depart="1370.00" from="193166666_2036822497_2036822513" to="193166663_5881193114_250854391"/>
    <trip id="138" depart="1380.00" from="193166663_420524156_2036822466" to="35978053_3301414229_3301414211"/>
    <trip id="139" depart="1390.00" from="305323800_255396514_309131588" to="383116022_359530216_359530535"/>
    <trip id="140" depart="1400.00" from="495295547_2036822490_1076629771" to="23584793_359731919_2036822451"/>
    <trip id="141" depart="1410.00" from="390221189_359728637_2023217247" to="294039091_2976099658_2976104402"/>
    <trip id="142" depart="1420.00" from="35847068_359727836_419107929" to="964314866_4731177013_8919680413"/>
    <trip id="143" depart="1430.00" from="690163997_250857522_370304526" to="191742014_359728413_2023217247"/>
    <trip id="144" depart="1440.00" from="32048195_359730520_359730430" to="305323800_255396514_309131588"/>
    <trip id="145" depart="1450.00" from="130070477_2023217212_359728639" to="622676077_5881180819_5881180818"/>
    <trip id="146" depart="1460.00" from="405724954_359874120_2036822451" to="294039091_2976099658_2976104402"/>
    <trip id="147" depart="1470.00" from="619244002_2023217236_359728130" to="35978053_3301414211_3301414229"/>
    <trip id="148" depart="1480.00" from="32048195_359730520_359730430" to="174500774_359728414_359739377"/>
    <trip id="149" depart="1490.00" from="174500828_359726698_359530343" to="960705969_420524188_4731177014"/>
    <trip id="150" depart="1500.00" from="964314866_4731177013_8919720134" to="35847142_419107929_5881241908"/>
    <trip id="151" depart="1510.00" from="688182784_6452388539_6452388545" to="35978076_2976099656_309133522"/>
    <trip id="152" depart="1520.00" from="193166668_2036822471_6485921797" to="193166664_309131588_2036822513"/>
    <trip id="153" depart="1530.00" from="32035141_359727008_359530343" to="960705969_8919680413_4731177014"/>
    <trip id="154" depart="1540.00" from="622683999_5881248335_5881241908" to="691235181_6485921798_6485921800"/>
    <trip id="155" depart="1550.00" from="964314865_8887299551_8919680414" to="23584793_359731919_255396514"/>
    <trip id="156" depart="1560.00" from="294038993_2976099656_2976099658" to="191742020_2023217240_359728130"/>
    <trip id="157" depart="1570.00" from="622683999_359530578_359729668" to="960705969_420524188_4731177014"/>
    <trip id="158" depart="1580.00" from="32047907_359729668_359729669" to="390221189_2023217247_359728414"/>
    <trip id="159" depart="1590.00" from="193166668_6485921797_2036822471" to="964314866_8919680414_8919720134"/>
    <trip id="160" depart="1600.00" from="691235181_6485921800_6485921798" to="976698608_9038148627_9038148626"/>
    <trip id="161" depart="1610.00" from="688182344_6452388535_6452388550" to="960705969_420524188_4731177014"/>
    <trip id="162" depart="1620.00" from="174500800_359727630_359731167" to="495295548_2036822498_2036822497"/>
    <trip id="163" depart="1630.00" from="32035148_359530751_359727832" to="964314866_8919680414_8919720134"/>
    <trip id="164" depart="1640.00" from="688182342_370304526_5851983802" to="691235181_6485921798_6485921800"/>
    <trip id="165" depart="1650.00" from="688182344_6452388535_6452388550" to="294039091_2976099658_2976104403"/>
    <trip id="166" depart="1660.00" from="622683999_359729668_359727628" to="193166663_250854391_420524156"/>
    <trip id="167" depart="1670.00" from="946531060_5881180818_309131559" to="691042040_6452388549_6452388539"/>
    <trip id="168" depart="1680.00" from="28145240_309131588_309133522" to="688182345_6483892906_6452388545"/>
    <trip id="169" depart="1690.00" from="323342968_3301414461_3301414229" to="32035141_359530343_359727008"/>
    <trip id="170" depart="1700.00" from="622683999_5881248335_5881241908" to="28145240_309131588_309133522"/>
    <trip id="171" depart="1710.00" from="174500800_359727628_359727831" to="23584793_2036822451_6485921798"/>
    <trip id="172" depart="1720.00" from="32035148_359530578_359727832" to="691235181_6485921798_6485921800"/>
    <trip id="173" depart="1730.00" from="976698608_9038148626_359726889" to="305323800_309131588_255396514"/>
    <trip id="174" depart="1740.00" from="441634595_2036822513_2036822490" to="32047907_359726698_359729668"/>
    <trip id="175" depart="1750.00" from="976705481_2036822467_9038234486" to="35847131_359523577_359524441"/>
    <trip id="176" depart="1760.00" from="967748228_250854401_5881180818" to="193166663_420524156_2036822466"/>
    <trip id="177" depart="1770.00" from="976698608_9038148626_359726889" to="200445697_359728639_359728637"/>
    <trip id="178" depart="1780.00" from="976698608_359726889_9038148627" to="294039091_2976099658_2976104403"/>
    <trip id="179" depart="1790.00" from="193166663_420524156_2036822466" to="32048251_359731167_359740556"/>
    <trip id="180" depart="1800.00" from="495295548_2036822491_2036822498" to="32035141_359727008_359530343"/>
    <trip id="181" depart="1810.00" from="383116022_359530535_9038148626" to="35847068_419107929_359727835"/>
    <trip id="182" depart="1820.00" from="32047800_359729669_359727832" to="35978075_309133522_255396514"/>
    <trip id="183" depart="1830.00" from="294038993_2976099658_2976099656" to="495295546_2036822497_2036822490"/>
    <trip id="184" depart="1840.00" from="130070477_2023217212_359728639" to="964314866_8919680414_8919680413"/>
    <trip id="185" depart="1850.00" from="35847131_359524441_359523577" to="495295547_1786899256_2036822478"/>
    <trip id="186" depart="1860.00" from="619244002_2023217236_359728130" to="495295544_1076629793_250854401"/>
    <trip id="187" depart="1870.00" from="32047800_359727831_359729669" to="174500828_359529731_250854411"/>
    <trip id="188" depart="1880.00" from="495295544_1076629793_250854401" to="32035143_359530578_359530343"/>
    <trip id="189" depart="1890.00" from="32035141_359727008_359530535" to="690163997_370304526_250857522"/>
    <trip id="190" depart="1900.00" from="495295547_2036822490_1076629771" to="32035131_359530216_359529731"/>
    <trip id="191" depart="1910.00" from="32035141_359727008_359530343" to="32047907_359729668_359726698"/>
    <trip id="192" depart="1920.00" from="32047907_359729668_359726698" to="32034491_359524441_1076629793"/>
    <trip id="193" depart="1930.00" from="193166665_2036822478_2036822467" to="32047907_359729669_359729670"/>
    <trip id="194" depart="1940.00" from="967748228_250854401_5881180818" to="495295544_250854397_5881193113"/>
    <trip id="195" depart="1950.00" from="964314866_4731177013_8919680413" to="383116022_9038148626_359530535"/>
    <trip id="196" depart="1960.00" from="32035141_359530343_359727008" to="35847142_419107929_5881241908"/>
    <trip id="197" depart="1970.00" from="130070477_2023217212_359728639" to="32033947_288400466_359524441"/>
    <trip id="198" depart="1980.00" from="32048251_359731167_359740556" to="35978076_2976099656_255396512"/>
    <trip id="199" depart="1990.00" from="486372127_4731177012_3301414211" to="323342968_3301414461_3301414229"/>
    <trip id="200" depart="2000.00" from="32048251_359740556_359731167" to="23584793_6485921798_2036822451"/>
    <trip id="201" depart="2010.00" from="35847026_359728415_2023217240" to="964314865_8919680414_8887299551"/>
    <trip id="202" depart="2020.00" from="622683999_5881248335_5881241908" to="193166672_2036822491_420524188"/>
    <trip id="203" depart="2030.00" from="191742013_359728413_359728414" to="35847068_419107929_359727836"/>
    <trip id="204" depart="2040.00" from="390221189_359728637_2023217247" to="32035148_359530578_359727832"/>
    <trip id="205" depart="2050.00" from="688182346_6452388539_6483892906" to="619244002_359728130_2023217236"/>
    <trip id="206" depart="2060.00" from="495295544_250854397_5881193113" to="26323835_2036822478_1076629757"/>
    <trip id="207" depart="2070.00" from="23584793_359731919_2036822451" to="174500800_359727630_359731167"/>
    <trip id="208" depart="2080.00" from="28401360_250857522_250857518" to="323342968_4731177014_3301414461"/>
    <trip id="209" depart="2090.00" from="690163997_370304526_250857522" to="174500828_359530343_359529731"/>
    <trip id="210" depart="2100.00" from="32047907_359729670_359729669" to="390221189_2023217247_359728637"/>
    <trip id="211" depart="2110.00" from="23584793_255396514_359731919" to="495295544_5881193113_288400466"/>
    <trip id="212" depart="2120.00" from="35847068_359728415_359727835" to="28401360_250857518_250857522"/>
    <trip id="213" depart="2130.00" from="486372127_4731177012_3301414211" to="133896681_359727630_359727631"/>
    <trip id="214" depart="2140.00" from="619244002_5851983806_359728130" to="622676077_5881180819_5881180818"/>
    <trip id="215" depart="2150.00" from="193166663_420524156_2036822466" to="32048104_359729959_359730282"/>
    <trip id="216" depart="2160.00" from="200445697_359728639_359728637" to="976185943_6485921800_6485921797"/>
    <trip id="217" depart="2170.00" from="35847081_359727836_250854412" to="174500800_359730430_359727831"/>
    <trip id="218" depart="2180.00" from="294038993_2976099656_2976099658" to="690163997_370304526_250857522"/>
    <trip id="219" depart="2190.00" from="323342968_3301414229_3301414461" to="622683999_5881248335_5881241908"/>
    <trip id="220" depart="2200.00" from="495295544_1076629793_250854401" to="976705481_2036822467_9038234486"/>
    <trip id="221" depart="2210.00" from="383116022_359530216_250854391" to="967748229_309131559_250854412"/>
    <trip id="222" depart="2220.00" from="960705969_8919680413_4731177014" to="383116022_359530535_9038148626"/>
    <trip id="223" depart="2230.00" from="495295547_2036822490_1076629771" to="35847068_359728415_359739377"/>
    <trip id="224" depart="2240.00" from="688182348_6452388550_5851983802" to="35847142_419107929_5881241908"/>
    <trip id="225" depart="2250.00" from="964314865_8887299551_8919680414" to="495295554_255396514_288400573"/>
    <trip id="226" depart="2260.00" from="35847026_359728415_2023217240" to="294038993_2976099658_2976099656"/>
    <trip id="227" depart="2270.00" from="294038993_2976099656_2976099658" to="390221189_359728637_2023217247"/>
    <trip id="228" depart="2280.00" from="622676077_5881180819_5881180818" to="35847081_359727836_250854412"/>
    <trip id="229" depart="2290.00" from="390221189_359728414_2023217247" to="305323800_255396514_309131588"/>
    <trip id="230" depart="2300.00" from="191742012_2023217236_359728413" to="32033947_288400466_359524441"/>
    <trip id="231" depart="2310.00" from="305323800_255396514_309131588" to="32035141_359727008_359530535"/>
    <trip id="232" depart="2320.00" from="35847142_419107929_5881241908" to="193166666_2036822497_2036822513"/>
    <trip id="233" depart="2330.00" from="28401360_250857516_250857518" to="495295544_5881193113_288400466"/>
    <trip id="234" depart="2340.00" from="495295546_2036822497_2036822490" to="174500800_359731167_359729959"/>
    <trip id="235" depart="2350.00" from="32047907_359729668_359729669" to="35847131_359524441_359523577"/>
    <trip id="236" depart="2360.00" from="32047907_359729670_359729669" to="23584793_359731919_255396514"/>
    <trip id="237" depart="2370.00" from="32048104_359730282_359729959" to="964314866_4731177013_8919680413"/>
    <trip id="238" depart="2380.00" from="35978076_309133522_2976099656" to="495295544_5881193113_288400466"/>
    <trip id="239" depart="2390.00" from="691235181_6485921798_6485921800" to="622676076_5881180819_309108833"/>
    <trip id="240" depart="2400.00" from="32047800_359729669_359727831" to="133896681_359727630_359727631"/>
    <trip id="241" depart="2410.00" from="32047570_359727008_359727006" to="619244002_359728130_2023217236"/>
    <trip id="242" depart="2420.00" from="691042040_6452388549_6452388539" to="976185943_6485921797_6485921800"/>
    <trip id="243" depart="2430.00" from="32048104_359730282_359729959" to="619244002_2023217236_359728130"/>
    <trip id="244" depart="2440.00" from="35978053_3301414211_3301414229" to="383116022_359530216_359530535"/>
    <trip id="245" depart="2450.00" from="26323835_2036822478_1076629757" to="23584793_6485921798_359873981"/>
    <trip id="246" depart="2460.00" from="32048251_359731261_359740556" to="174500800_359727831_359727628"/>
    <trip id="247" depart="2470.00" from="32035148_359530751_359727832" to="495295544_250854411_250854397"/>
    <trip id="248" depart="2480.00" from="32047907_359729668_359729669" to="193166668_6485921797_6483892906"/>
    <trip id="249" depart="2490.00" from="323342968_4731177014_3301414461" to="193166664_309131588_2036822513"/>
    <trip id="250" depart="2500.00" from="390221189_2023217247_359728637" to="174500800_359727630_359731167"/>
    <trip id="251" depart="2510.00" from="32047804_309131559_359727836" to="35978053_3301414254_3301414229"/>
    <trip id="252" depart="2520.00" from="174500800_359727630_359731167" to="405724954_2036822451_359874120"/>
    <trip id="253" depart="2530.00" from="193166667_1076629771_2036822471" to="323342968_3301414461_3301414229"/>
    <trip id="254" depart="2540.00" from="174500800_359730430_359729959" to="32047800_359727832_359729669"/>
    <trip id="255" depart="2550.00" from="23584793_6485921798_2036822451" to="32035143_359530343_359530578"/>
    <trip id="256" depart="2560.00" from="622676076_5881180819_309108833" to="32047800_359727832_359729669"/>
    <trip id="257" depart="2570.00" from="619244002_5851983806_359728130" to="688182784_6452388539_6452388545"/>
    <trip id="258" depart="2580.00" from="294038993_2976099658_2976099656" to="191742012_2023217236_359728413"/>
    <trip id="259" depart="2590.00" from="174500800_359727628_359727831" to="35847131_359524441_359523577"/>
    <trip id="260" depart="2600.00" from="978138011_359727627_359726698" to="32047570_359727006_359727005"/>
    <trip id="261" depart="2610.00" from="480088113_4731177013_3301414254" to="622677479_250854397_5881193114"/>
    <trip id="262" depart="2620.00" from="480088113_4731177013_3301414254" to="619244002_359728130_2023217236"/>
    <trip id="263" depart="2630.00" from="976185943_6485921797_6485921800" to="23584793_255396514_359731919"/>
    <trip id="264" depart="2640.00" from="174500800_359727628_359727831" to="193166668_2036822471_6485921797"/>
    <trip id="265" depart="2650.00" from="193166665_2036822478_2036822467" to="495295544_1076629793_250854401"/>
    <trip id="266" depart="2660.00" from="35978075_255396514_309133522" to="23584793_6485921798_359873981"/>
    <trip id="267" depart="2670.00" from="495295545_2036822466_1076629757" to="622676076_5881180819_309108833"/>