<?xml version="1.0" encoding="utf-8"?>
<!DOCTYPE population SYSTEM "http://www.matsim.org/files/dtd/population_v6.dtd">

<population>



<!-- ====================================================================== -->

	<person id="0">
		<attributes>
			<attribute name="drivelogic" class="java.lang.String" >org.matsim.contrib.smartcity.agent.CLASSDriverLogicBasic</attribute>
		</attributes>
		<plan selected="yes">
			<activity type="h" link="1973" max_dur="08:19:30" >
			</activity>
			<leg mode="car">
			</leg>
			<activity type="w" link="1530" start_time="08:39:45" end_time="18:29:44" >
			</activity>
			<leg mode="car">
			</leg>
			<activity type="h" link="1973" >
			</activity>
		</plan>

	</person>

<!-- ====================================================================== -->

	<person id="1">
		<attributes>
			<attribute name="drivelogic" class="java.lang.String" >org.matsim.contrib.smartcity.agent.CLASSDriverLogicBasic</attribute>
		</attributes>
		<plan selected="yes">
			<activity type="h" link="1779" max_dur="08:29:23" >
			</activity>
			<leg mode="car">
			</leg>
			<activity type="w" link="2069" start_time="08:36:01" end_time="19:42:18" >
			</activity>
			<leg mode="car">
			</leg>
			<activity type="h" link="1779" >
			</activity>
		</plan>

	</person>

<!-- ====================================================================== -->

	<person id="10">
		<attributes>
			<attribute name="drivelogic" class="java.lang.String" >org.matsim.contrib.smartcity.agent.CLASSDriverLogicBasic</attribute>
		</attributes>
		<plan selected="yes">
			<activity type="h" link="2942" max_dur="09:33:25" >
			</activity>
			<leg mode="car">
			</leg>
			<activity type="w" link="894" start_time="09:45:06" end_time="17:55:01" >
			</activity>
			<leg mode="car">
			</leg>
			<activity type="h" link="2942" >
			</activity>
		</plan>

	</person>

<!-- ====================================================================== -->

	<person id="100">
		<attributes>
			<attribute name="drivelogic" class="java.lang.String" >org.matsim.contrib.smartcity.agent.CLASSDriverLogicBasic</attribute>
		</attributes>
		<plan selected="yes">
			<activity type="h" link="3272" max_dur="08:30:05" >
			</activity>
			<leg mode="car">
			</leg>
			<activity type="w" link="1454" start_time="08:36:39" end_time="19:26:21" >
			</activity>
			<leg mode="car">
			</leg>
			<activity type="h" link="3272" >
			</activity>
		</plan>

	</person>

<!-- ====================================================================== -->

	<person id="1000">
		<attributes>
			<attribute name="drivelogic" class="java.lang.String" >org.matsim.contrib.smartcity.agent.CLASSDriverLogicBasic</attribute>
		</attributes>
		<plan selected="yes">
			<activity type="h" link="1977" max_dur="08:23:43" >
			</activity>
			<leg mode="car">
			</leg>
			<activity type="w" link="2977" start_time="08:33:15" end_time="19:07:34" >
			</activity>
			<leg mode="car">
			</leg>
			<activity type="h" link="1977" >
			</activity>
		</plan>

	</person>

<!-- ====================================================================== -->

	<person id="1001">
		<attributes>
			<attribute name="drivelogic" class="java.lang.String" >org.matsim.contrib.smartcity.agent.CLASSDriverLogicBasic</attribute>
		</attributes>
		<plan selected="yes">
			<activity type="h" link="218" max_dur="10:12:30" >
			</activity>
			<leg mode="car">
			</leg>
			<activity type="w" link="3032" start_time="10:21:21" end_time="18:56:49" >
			</activity>
			<leg mode="car">
			</leg>
			<activity type="h" link="218" >
			</activity>
		</plan>

	</person>

<!-- ====================================================================== -->

	<person id="1002">
		<attributes>
			<attribute name="drivelogic" class="java.lang.String" >org.matsim.contrib.smartcity.agent.CLASSDriverLogicBasic</attribute>
		</attributes>
		<plan selected="yes">
			<activity type="h" link="155" max_dur="09:49:44" >
			</activity>
			<leg mode="car">
			</leg>
			<activity type="w" link="1907" start_time="10:01:35" end_time="18:59:17" >
			</activity>
			<leg mode="car">
			</leg>
			<activity type="h" link="155" >
			</activity>
		</plan>

	</person>

<!-- ====================================================================== -->

	<person id="1003">
		<attributes>
			<attribute name="drivelogic" class="java.lang.String" >org.matsim.contrib.smartcity.agent.CLASSDriverLogicBasic</attribute>
		</attributes>
		<plan selected="yes">
			<activity type="h" link="2163" max_dur="09:25:12" >
			</activity>
			<leg mode="car">
			</leg>
			<activity type="w" link="1344" start_time="09:33:39" end_time="18:04:04" >
			</activity>
			<leg mode="car">
			</leg>
			<activity type="h" link="2163" >
			</activity>
		</plan>

	</person>

<!-- ====================================================================== -->

	<person id="1004">
		<attributes>
			<attribute name="drivelogic" class="java.lang.String" >org.matsim.contrib.smartcity.agent.CLASSDriverLogicBasic</attribute>
		</attributes>
		<plan selected="yes">
			<activity type="h" link="1062" max_dur="08:56:58" >
			</activity>
			<leg mode="car">
			</leg>
			<activity type="w" link="3263" start_time="09:01:03" end_time="17:19:37" >
			</activity>
			<leg mode="car">
			</leg>
			<activity type="h" link="1062" >
			</activity>
		</plan>

	</person>

<!-- ====================================================================== -->

	<person id="1005">
		<attributes>
			<attribute name="drivelogic" class="java.lang.String" >org.matsim.contrib.smartcity.agent.CLASSDriverLogicBasic</attribute>
		</attributes>
		<plan selected="yes">
			<activity type="h" link="3285" max_dur="09:05:14" >
			</activity>
			<leg mode="car">
			</leg>
			<activity type="w" link="475" start_time="09:13:17" end_time="17:15:06" >
			</activity>
			<leg mode="car">
			</leg>
			<activity type="h" link="3285" >
			</activity>
		</plan>

	</person>

<!-- ====================================================================== -->

	<person id="1006">
		<attributes>
			<attribute name="drivelogic" class="java.lang.String" >org.matsim.contrib.smartcity.agent.CLASSDriverLogicBasic</attribute>
		</attributes>
		<plan selected="yes">
			<activity type="h" link="1495" max_dur="08:07:24" >
			</activity>
			<leg mode="car">
			</leg>
			<activity type="w" link="270" start_time="08:31:15" end_time="18:42:40" >
			</activity>
			<leg mode="car">
			</leg>
			<activity type="h" link="1495" >
			</activity>
		</plan>

	</person>

<!-- ====================================================================== -->

	<person id="1007">
		<attributes>
			<attribute name="drivelogic" class="java.lang.String" >org.matsim.contrib.smartcity.agent.CLASSDriverLogicBasic</attribute>
		</attributes>
		<plan selected="yes">
			<activity type="h" link="1891" max_dur="09:06:05" >
			</activity>
			<leg mode="car">
			</leg>
			<activity type="w" link="1542" start_time="09:28:59" end_time="16:53:28" >
			</activity>
			<leg mode="car">
			</leg>
			<activity type="h" link="1891" >
			</activity>
		</plan>

	</person>

<!-- ====================================================================== -->

	<person id="1008">
		<attributes>
			<attribute name="drivelogic" class="java.lang.String" >org.matsim.contrib.smartcity.agent.CLASSDriverLogicBasic</attribute>
		</attributes>
		<plan selected="yes">
			<activity type="h" link="1221" max_dur="07:07:22" >
			</activity>
			<leg mode="car">
			</leg>
			<activity type="w" link="2847" start_time="07:19:29" end_time="18:23:50" >
			</activity>
			<leg mode="car">
			</leg>
			<activity type="h" link="1221" >
			</activity>
		</plan>

	</person>

<!-- ====================================================================== -->

	<person id="1009">
		<attributes>
			<attribute name="drivelogic" class="java.lang.String" >org.matsim.contrib.smartcity.agent.CLASSDriverLogicBasic</attribute>
		</attributes>
		<plan selected="yes">
			<activity type="h" link="1466" max_dur="09:23:05" >
			</activity>
			<leg mode="car">
			</leg>
			<activity type="w" link="339" start_time="09:24:35" end_time="20:06:16" >
			</activity>
			<leg mode="car">
			</leg>
			<activity type="h" link="1466" >
			</activity>
		</plan>

	</person>

<!-- ====================================================================== -->

	<person id="101">
		<attributes>
			<attribute name="drivelogic" class="java.lang.String" >org.matsim.contrib.smartcity.agent.CLASSDriverLogicBasic</attribute>
		</attributes>
		<plan selected="yes">
			<activity type="h" link="1503" max_dur="08:16:45" >
			</activity>
			<leg mode="car">
			</leg>
			<activity type="w" link="3093" start_time="08:32:44" end_time="16:05:04" >
			</activity>
			<leg mode="car">
			</leg>
			<activity type="h" link="1503" >
			</activity>
		</plan>

	</person>

<!-- ====================================================================== -->

	<person id="1010">
		<attributes>
			<attribute name="drivelogic" class="java.lang.String" >org.matsim.contrib.smartcity.agent.CLASSDriverLogicBasic</attribute>
		</attributes>
		<plan selected="yes">
			<activity type="h" link="911" max_dur="08:29:16" >
			</activity>
			<leg mode="car">
			</leg>
			<activity type="w" link="1584" start_time="08:51:16" end_time="18:13:10" >
			</activity>
			<leg mode="car">
			</leg>
			<activity type="h" link="911" >
			</activity>
		</plan>

	</person>

<!-- ====================================================================== -->

	<person id="1011">
		<attributes>
			<attribute name="drivelogic" class="java.lang.String" >org.matsim.contrib.smartcity.agent.CLASSDriverLogicBasic</attribute>
		</attributes>
		<plan selected="yes">
			<activity type="h" link="1145" max_dur="09:03:28" >
			</activity>
			<leg mode="car">
			</leg>
			<activity type="w" link="2160" start_time="09:11:06" end_time="18:36:20" >
			</activity>
			<leg mode="car">
			</leg>
			<activity type="h" link="1145" >
			</activity>
		</plan>

	</person>

<!-- ====================================================================== -->

	<person id="1012">
		<attributes>
			<attribute name="drivelogic" class="java.lang.String" >org.matsim.contrib.smartcity.agent.CLASSDriverLogicBasic</attribute>
		</attributes>
		<plan selected="yes">
			<activity type="h" link="2321" max_dur="08:53:08" >
			</activity>
			<leg mode="car">
			</leg>
			<activity type="w" link="2332" start_time="08:56:26" end_time="17:31:45" >
			</activity>
			<leg mode="car">
			</leg>
			<activity type="h" link="2321" >
			</activity>
		</plan>

	</person>

<!-- ====================================================================== -->

	<person id="1013">
		<attributes>
			<attribute name="drivelogic" class="java.lang.String" >org.matsim.contrib.smartcity.agent.CLASSDriverLogicBasic</attribute>
		</attributes>
		<plan selected="yes">
			<activity type="h" link="1947" max_dur="08:07:29" >
			</activity>
			<leg mode="car">
			</leg>
			<activity type="w" link="2873" start_time="08:19:22" end_time="18:18:44" >
			</activity>
			<leg mode="car">
			</leg>
			<activity type="h" link="1947" >
			</activity>
		</plan>

	</person>

<!-- ====================================================================== -->

	<person id="1014">
		<attributes>
			<attribute name="drivelogic" class="java.lang.String" >org.matsim.contrib.smartcity.agent.CLASSDriverLogicBasic</attribute>
		</attributes>
		<plan selected="yes">
			<activity type="h" link="2899" max_dur="10:08:00" >
			</activity>
			<leg mode="car">
			</leg>
			<activity type="w" link="1877" start_time="10:14:37" end_time="16:35:38" >
			</activity>
			<leg mode="car">
			</leg>
			<activity type="h" link="2899" >
			</activity>
		</plan>

	</person>

<!-- ====================================================================== -->

	<person id="1015">
		<attributes>
			<attribute name="drivelogic" class="java.lang.String" >org.matsim.contrib.smartcity.agent.CLASSDriverLogicBasic</attribute>
		</attributes>
		<plan selected="yes">
			<activity type="h" link="397" max_dur="09:25:35" >
			</activity>
			<leg mode="car">
			</leg>
			<activity type="w" link="1502" start_time="09:47:55" end_time="17:24:34" >
			</activity>
			<leg mode="car">
			</leg>
			<activity type="h" link="397" >
			</activity>
		</plan>

	</person>

<!-- ====================================================================== -->

	<person id="1016">
		<attributes>
			<attribute name="drivelogic" class="java.lang.String" >org.matsim.contrib.smartcity.agent.CLASSDriverLogicBasic</attribute>
		</attributes>
		<plan selected="yes">
			<activity type="h" link="376" max_dur="08:33:14" >
			</activity>
			<leg mode="car">
			</leg>
			<activity type="w" link="1973" start_time="08:37:00" end_time="18:14:09" >
			</activity>
			<leg mode="car">
			</leg>
			<activity type="h" link="376" >
			</activity>
		</plan>

	</person>

<!-- ====================================================================== -->

	<person id="1017">
		<attributes>
			<attribute name="drivelogic" class="java.lang.String" >org.matsim.contrib.smartcity.agent.CLASSDriverLogicBasic</attribute>
		</attributes>
		<plan selected="yes">
			<activity type="h" link="1931" max_dur="09:02:42" >
			</activity>
			<leg mode="car">
			</leg>
			<activity type="w" link="1247" start_time="09:06:09" end_time="17:42:30" >
			</activity>
			<leg mode="car">
			</leg>
			<activity type="h" link="1931" >
			</activity>
		</plan>

	</person>

<!-- ====================================================================== -->

	<person id="1018">
		<attributes>
			<attribute name="drivelogic" class="java.lang.String" >org.matsim.contrib.smartcity.agent.CLASSDriverLogicBasic</attribute>
		</attributes>
		<plan selected="yes">
			<activity type="h" link="604" max_dur="08:31:05" >
			</activity>
			<leg mode="car">
			</leg>
			<activity type="w" link="1876" start_time="08:36:21" end_time="17:59:09" >
			</activity>
			<leg mode="car">
			</leg>
			<activity type="h" link="604" >
			</activity>
		</plan>

	</person>

<!-- ====================================================================== -->

	<person id="1019">
		<attributes>
			<attribute name="drivelogic" class="java.lang.String" >org.matsim.contrib.smartcity.agent.CLASSDriverLogicBasic</attribute>
		</attributes>
		<plan selected="yes">
			<activity type="h" link="2318" max_dur="08:15:54" >
			</activity>
			<leg mode="car">
			</leg>
			<activity type="w" link="3236" start_time="08:23:15" end_time="17:38:15" >
			</activity>
			<leg mode="car">
			</leg>
			<activity type="h" link="2318" >
			</activity>
		</plan>

	</person>

<!-- ====================================================================== -->

	<person id="102">
		<attributes>
			<attribute name="drivelogic" class="java.lang.String" >org.matsim.contrib.smartcity.agent.CLASSDriverLogicBasic</attribute>
		</attributes>
		<plan selected="yes">
			<activity type="h" link="2589" max_dur="08:19:40" >
			</activity>
			<leg mode="car">
			</leg>
			<activity type="w" link="3095" start_time="08:34:29" end_time="20:40:57" >
			</activity>
			<leg mode="car">
			</leg>
			<activity type="h" link="2589" >
			</activity>
		</plan>

	</person>

<!-- ====================================================================== -->

	<person id="1020">
		<attributes>
			<attribute name="drivelogic" class="java.lang.String" >org.matsim.contrib.smartcity.agent.CLASSDriverLogicBasic</attribute>
		</attributes>
		<plan selected="yes">
			<activity type="h" link="161" max_dur="11:02:10" >
			</activity>
			<leg mode="car">
			</leg>
			<activity type="w" link="2205" start_time="11:11:43" end_time="18:39:22" >
			</activity>
			<leg mode="car">
			</leg>
			<activity type="h" link="161" >
			</activity>
		</plan>

	</person>

<!-- ====================================================================== -->

	<person id="1021">
		<attributes>
			<attribute name="drivelogic" class="java.lang.String" >org.matsim.contrib.smartcity.agent.CLASSDriverLogicBasic</attribute>
		</attributes>
		<plan selected="yes">
			<activity type="h" link="2035" max_dur="09:49:10" >
			</activity>
			<leg mode="car">
			</leg>
			<activity type="w" link="3106" start_time="09:54:22" end_time="18:10:37" >
			</activity>
			<leg mode="car">
			</leg>
			<activity type="h" link="2035" >
			</activity>
		</plan>

	</person>

<!-- ====================================================================== -->

	<person id="1022">
		<attributes>
			<attribute name="drivelogic" class="java.lang.String" >org.matsim.contrib.smartcity.agent.CLASSDriverLogicBasic</attribute>
		</attributes>
		<plan selected="yes">
			<activity type="h" link="2146" max_dur="09:38:56" >
			</activity>
			<leg mode="car">
			</leg>
			<activity type="w" link="2409" start_time="09:40:43" end_time="17:27:45" >
			</activity>
			<leg mode="car">
			</leg>
			<activity type="h" link="2146" >
			</activity>
		</plan>

	</person>

<!-- ====================================================================== -->

	<person id="1023">
		<attributes>
			<attribute name="drivelogic" class="java.lang.String" >org.matsim.contrib.smartcity.agent.CLASSDriverLogicBasic</attribute>
		</attributes>
		<plan selected="yes">
			<activity type="h" link="1504" max_dur="08:17:11" >
			</activity>
			<leg mode="car">
			</leg>
			<activity type="w" link="2704" start_time="08:34:29" end_time="17:25:53" >
			</activity>
			<leg mode="car">
			</leg>
			<activity type="h" link="1504" >
			</activity>
		</plan>

	</person>

<!-- ====================================================================== -->

	<person id="1024">
		<attributes>
			<attribute name="drivelogic" class="java.lang.String" >org.matsim.contrib.smartcity.agent.CLASSDriverLogicBasic</attribute>
		</attributes>
		<plan selected="yes">
			<activity type="h" link="2041" max_dur="08:51:31" >
			</activity>
			<leg mode="car">
			</leg>
			<activity type="w" link="63" start_time="08:54:43" end_time="18:11:02" >
			</activity>
			<leg mode="car">
			</leg>
			<activity type="h" link="2041" >
			</activity>
		</plan>

	</person>

<!-- ====================================================================== -->

	<person id="1025">
		<attributes>
			<attribute name="drivelogic" class="java.lang.String" >org.matsim.contrib.smartcity.agent.CLASSDriverLogicBasic</attribute>
		</attributes>
		<plan selected="yes">
			<activity type="h" link="535" max_dur="08:18:28" >
			</activity>
			<leg mode="car">
			</leg>
			<activity type="w" link="2387" start_time="08:24:08" end_time="18:32:59" >
			</activity>
			<leg mode="car">
			</leg>
			<activity type="h" link="535" >
			</activity>
		</plan>

	</person>

<!-- ====================================================================== -->

	<person id="1026">
		<attributes>
			<attribute name="drivelogic" class="java.lang.String" >org.matsim.contrib.smartcity.agent.CLASSDriverLogicBasic</attribute>
		</attributes>
		<plan selected="yes">
			<activity type="h" link="3241" max_dur="08:08:33" >
			</activity>
			<leg mode="car">
			</leg>
			<activity type="w" link="3242" start_time="08:11:47" end_time="15:36:05" >
			</activity>
			<leg mode="car">
			</leg>
			<activity type="h" link="3241" >
			</activity>
		</plan>

	</person>

<!-- ====================================================================== -->

	<person id="1027">
		<attributes>
			<attribute name="drivelogic" class="java.lang.String" >org.matsim.contrib.smartcity.agent.CLASSDriverLogicBasic</attribute>
		</attributes>
		<plan selected="yes">
			<activity type="h" link="1914" max_dur="09:43:00" >
			</activity>
			<leg mode="car">
			</leg>
			<activity type="w" link="2508" start_time="09:43:09" end_time="18:42:54" >
			</activity>
			<leg mode="car">
			</leg>
			<activity type="h" link="1914" >
			</activity>
		</plan>

	</person>

<!-- ====================================================================== -->

	<person id="1028">
		<attributes>
			<attribute name="drivelogic" class="java.lang.String" >org.matsim.contrib.smartcity.agent.CLASSDriverLogicBasic</attribute>
		</attributes>
		<plan selected="yes">
			<activity type="h" link="3139" max_dur="08:14:30" >
			</activity>
			<leg mode="car">
			</leg>
			<activity type="w" link="196" start_time="08:24:40" end_time="16:58:25" >
			</activity>
			<leg mode="car">
			</leg>
			<activity type="h" link="3139" >
			</activity>
		</plan>

	</person>

<!-- ====================================================================== -->

	<person id="1029">
		<attributes>
			<attribute name="drivelogic" class="java.lang.String" >org.matsim.contrib.smartcity.agent.CLASSDriverLogicBasic</attribute>
		</attributes>
		<plan selected="yes">
			<activity type="h" link="2323" max_dur="11:19:46" >
			</activity>
			<leg mode="car">
			</leg>
			<activity type="w" link="693" start_time="11:26:01" end_time="18:23:12" >
			</activity>
			<leg mode="car">
			</leg>
			<activity type="h" link="2323" >
			</activity>
		</plan>

	</person>

<!-- ====================================================================== -->

	<person id="103">
		<attributes>
			<attribute name="drivelogic" class="java.lang.String" >org.matsim.contrib.smartcity.agent.CLASSDriverLogicBasic</attribute>
		</attributes>
		<plan selected="yes">
			<activity type="h" link="3002" max_dur="09:06:19" >
			</activity>
			<leg mode="car">
			</leg>
			<activity type="w" link="1657" start_time="09:17:05" end_time="16:34:54" >
			</activity>
			<leg mode="car">
			</leg>
			<activity type="h" link="3002" >
			</activity>
		</plan>

	</person>

<!-- ====================================================================== -->

	<person id="1030">
		<attributes>
			<attribute name="drivelogic" class="java.lang.String" >org.matsim.contrib.smartcity.agent.CLASSDriverLogicBasic</attribute>
		</attributes>
		<plan selected="yes">
			<activity type="h" link="1964" max_dur="08:48:39" >
			</activity>
			<leg mode="car">
			</leg>
			<activity type="w" link="250" start_time="08:50:53" end_time="17:19:42" >
			</activity>
			<leg mode="car">
			</leg>
			<activity type="h" link="1964" >
			</activity>
		</plan>

	</person>

<!-- ====================================================================== -->

	<person id="1031">
		<attributes>
			<attribute name="drivelogic" class="java.lang.String" >org.matsim.contrib.smartcity.agent.CLASSDriverLogicBasic</attribute>
		</attributes>
		<plan selected="yes">
			<activity type="h" link="1706" max_dur="08:36:38" >
			</activity>
			<leg mode="car">
			</leg>
			<activity type="w" link="1971" start_time="08:42:20" end_time="16:58:54" >
			</activity>
			<leg mode="car">
			</leg>
			<activity type="h" link="1706" >
			</activity>
		</plan>

	</person>

<!-- ====================================================================== -->

	<person id="1032">
		<attributes>
			<attribute name="drivelogic" class="java.lang.String" >org.matsim.contrib.smartcity.agent.CLASSDriverLogicBasic</attribute>
		</attributes>
		<plan selected="yes">
			<activity type="h" link="1853" max_dur="07:42:50" >
			</activity>
			<leg mode="car">
			</leg>
			<activity type="w" link="99" start_time="07:55:23" end_time="18:27:52" >
			</activity>
			<leg mode="car">
			</leg>
			<activity type="h" link="1853" >
			</activity>
		</plan>

	</person>

<!-- ====================================================================== -->

	<person id="1033">
		<attributes>
			<attribute name="drivelogic" class="java.lang.String" >org.matsim.contrib.smartcity.agent.CLASSDriverLogicBasic</attribute>
		</attributes>
		<plan selected="yes">
			<activity type="h" link="3187" max_dur="09:19:38" >
			</activity>
			<leg mode="car">
			</leg>
			<activity type="w" link="193" start_time="09:27:39" end_time="17:07:56" >
			</activity>
			<leg mode="car">
			</leg>
			<activity type="h" link="3187" >
			</activity>
		</plan>

	</person>

<!-- ====================================================================== -->

	<person id="1034">
		<attributes>
			<attribute name="drivelogic" class="java.lang.String" >org.matsim.contrib.smartcity.agent.CLASSDriverLogicBasic</attribute>
		</attributes>
		<plan selected="yes">
			<activity type="h" link="3052" max_dur="06:57:58" >
			</activity>
			<leg mode="car">
			</leg>
			<activity type="w" link="1412" start_time="07:08:08" end_time="20:35:13" >
			</activity>
			<leg mode="car">
			</leg>
			<activity type="h" link="3052" >
			</activity>
		</plan>

	</person>

<!-- ====================================================================== -->

	<person id="1035">
		<attributes>
			<attribute name="drivelogic" class="java.lang.String" >org.matsim.contrib.smartcity.agent.CLASSDriverLogicBasic</attribute>
		</attributes>
		<plan selected="yes">
			<activity type="h" link="694" max_dur="09:51:29" >
			</activity>
			<leg mode="car">
			</leg>
			<activity type="w" link="1909" start_time="10:01:43" end_time="17:59:52" >
			</activity>
			<leg mode="car">
			</leg>
			<activity type="h" link="694" >
			</activity>
		</plan>

	</person>

<!-- ====================================================================== -->

	<person id="1036">
		<attributes>
			<attribute name="drivelogic" class="java.lang.String" >org.matsim.contrib.smartcity.agent.CLASSDriverLogicBasic</attribute>
		</attributes>
		<plan selected="yes">
			<activity type="h" link="1156" max_dur="09:12:48" >
			</activity>
			<leg mode="car">
			</leg>
			<activity type="w" link="1802" start_time="09:19:46" end_time="16:51:03" >
			</activity>
			<leg mode="car">
			</leg>
			<activity type="h" link="1156" >
			</activity>
		</plan>

	</person>

<!-- ====================================================================== -->

	<person id="1037">
		<attributes>
			<attribute name="drivelogic" class="java.lang.String" >org.matsim.contrib.smartcity.agent.CLASSDriverLogicBasic</attribute>
		</attributes>
		<plan selected="yes">
			<activity type="h" link="1025" max_dur="08:12:27" >
			</activity>
			<leg mode="car">
			</leg>
			<activity type="w" link="2232" start_time="08:16:50" end_time="18:12:15" >
			</activity>
			<leg mode="car">
			</leg>
			<activity type="h" link="1025" >
			</activity>
		</plan>

	</person>

<!-- ====================================================================== -->

	<person id="1038">
		<attributes>
			<attribute name="drivelogic" class="java.lang.String" >org.matsim.contrib.smartcity.agent.CLASSDriverLogicBasic</attribute>
		</attributes>
		<plan selected="yes">
			<activity type="h" link="1311" max_dur="08:42:09" >
			</activity>
			<leg mode="car">
			</leg>
			<activity type="w" link="647" start_time="08:44:36" end_time="17:03:16" >
			</activity>
			<leg mode="car">
			</leg>
			<activity type="h" link="1311" >
			</activity>
		</plan>

	</person>

<!-- ====================================================================== -->

	<person id="1039">
		<attributes>
			<attribute name="drivelogic" class="java.lang.String" >org.matsim.contrib.smartcity.agent.CLASSDriverLogicBasic</attribute>
		</attributes>
		<plan selected="yes">
			<activity type="h" link="3162" max_dur="07:56:48" >
			</activity>
			<leg mode="car">
			</leg>
			<activity type="w" link="2545" start_time="08:10:39" end_time="16:06:43" >
			</activity>
			<leg mode="car">
			</leg>
			<activity type="h" link="3162" >
			</activity>
		</plan>

	</person>

<!-- ====================================================================== -->

	<person id="104">
		<attributes>
			<attribute name="drivelogic" class="java.lang.String" >org.matsim.contrib.smartcity.agent.CLASSDriverLogicBasic</attribute>
		</attributes>
		<plan selected="yes">
			<activity type="h" link="2069" max_dur="07:22:58" >
			</activity>
			<leg mode="car">
			</leg>
			<activity type="w" link="1330" start_time="07:31:51" end_time="18:17:11" >
			</activity>
			<leg mode="car">
			</leg>
			<activity type="h" link="2069" >
			</activity>
		</plan>

	</person>

<!-- ====================================================================== -->

	<person id="1040">
		<attributes>
			<attribute name="drivelogic" class="java.lang.String" >org.matsim.contrib.smartcity.agent.CLASSDriverLogicBasic</attribute>
		</attributes>
		<plan selected="yes">
			<activity type="h" link="1074" max_dur="08:47:20" >
			</activity>
			<leg mode="car">
			</leg>
			<activity type="w" link="1030" start_time="08:49:06" end_time="17:21:29" >
			</activity>
			<leg mode="car">
			</leg>
			<activity type="h" link="1074" >
			</activity>
		</plan>

	</person>

<!-- ====================================================================== -->

	<person id="1041">
		<attributes>
			<attribute name="drivelogic" class="java.lang.String" >org.matsim.contrib.smartcity.agent.CLASSDriverLogicBasic</attribute>
		</attributes>
		<plan selected="yes">
			<activity type="h" link="1189" max_dur="08:12:37" >
			</activity>
			<leg mode="car">
			</leg>
			<activity type="w" link="51" start_time="08:14:50" end_time="19:56:50" >
			</activity>
			<leg mode="car">
			</leg>
			<activity type="h" link="1189" >
			</activity>
		</plan>

	</person>

<!-- ====================================================================== -->

	<person id="1042">
		<attributes>
			<attribute name="drivelogic" class="java.lang.String" >org.matsim.contrib.smartcity.agent.CLASSDriverLogicBasic</attribute>
		</attributes>
		<plan selected="yes">
			<activity type="h" link="874" max_dur="11:02:01" >
			</activity>
			<leg mode="car">
			</leg>
			<activity type="w" link="1307" start_time="11:07:28" end_time="17:10:03" >
			</activity>
			<leg mode="car">
			</leg>
			<activity type="h" link="874" >
			</activity>
		</plan>

	</person>

<!-- ====================================================================== -->

	<person id="1043">
		<attributes>
			<attribute name="drivelogic" class="java.lang.String" >org.matsim.contrib.smartcity.agent.CLASSDriverLogicBasic</attribute>
		</attributes>
		<plan selected="yes">