<?xml version="1.0" encoding="UTF-8"?>
<!DOCTYPE network SYSTEM "http://www.matsim.org/files/dtd/network_v2.dtd">
<network>

<!-- ====================================================================== -->

	<nodes>
		<node id="1076629757" x="653073.9501188544" y="4946781.283076504" >
		</node>
		<node id="1076629758" x="653075.4804044681" y="4946788.01019564" >
		</node>
		<node id="1076629761" x="653074.6041977264" y="4946794.858124647" >
		</node>
		<node id="1076629764" x="653057.4331699334" y="4946808.777731234" >
		</node>
		<node id="1076629766" x="653050.520982822" y="4946808.224968869" >
		</node>
		<node id="1076629767" x="653044.2111084724" y="4946805.352462102" >
		</node>
		<node id="1076629769" x="653036.7300509673" y="4946795.661330228" >
		</node>
		<node id="1076629770" x="653035.5667985491" y="4946788.842886963" >
		</node>
		<node id="1076629771" x="653036.8150689824" y="4946782.025997055" >
		</node>
		<node id="1076629776" x="653052.24359479" y="4946769.332093379" >
		</node>
		<node id="1076629777" x="653059.183259902" y="4946769.396473686" >
		</node>
		<node id="1076629780" x="653065.678115264" y="4946771.828800867" >
		</node>
		<node id="1076629789" x="653377.8277465325" y="4946481.699385386" >
		</node>
		<node id="1076629791" x="653380.1646864048" y="4946468.473149137" >
		</node>
		<node id="1076629793" x="653385.2158435544" y="4946464.22510086" >
		</node>
		<node id="1076629794" x="653395.7237077282" y="4946463.040808018" >
		</node>
		<node id="1076629795" x="653404.3692163124" y="4946469.1255932525" >
		</node>
		<node id="1076629797" x="653406.8906934977" y="4946477.532380593" >
		</node>
		<node id="1076629799" x="653400.7711208144" y="4946489.357299164" >
		</node>
		<node id="1076629800" x="653388.9231539959" y="4946491.85460969" >
		</node>
		<node id="122006281" x="654214.2375643657" y="4947075.738653791" >
		</node>
		<node id="122006284" x="654107.843981237" y="4947138.697223195" >
		</node>
		<node id="1359262854" x="653385.5767365904" y="4946436.658831149" >
		</node>
		<node id="1359262856" x="653366.97431367" y="4946450.988280061" >
		</node>
		<node id="1419841705" x="653101.666643019" y="4946749.5080755465" >
		</node>
		<node id="1433716826" x="654293.2006143532" y="4946512.619310758" >
		</node>
		<node id="1433716827" x="654294.0732059107" y="4946537.536586208" >
		</node>
		<node id="1433716828" x="654242.0732560763" y="4946537.450880881" >
		</node>
		<node id="1433716829" x="654249.1133895435" y="4946553.590459035" >
		</node>
		<node id="1433716831" x="654196.9045741588" y="4946552.9555147765" >
		</node>
		<node id="1433716849" x="653905.2094980766" y="4946686.553773489" >
		</node>
		<node id="1476164942" x="653871.2757358496" y="4947184.973415314" >
		</node>
		<node id="1476164945" x="653871.5856646552" y="4947186.614623466" >
		</node>
		<node id="1476164946" x="653871.276375961" y="4947189.941593673" >
		</node>
		<node id="1476164947" x="653858.262006775" y="4947190.165090108" >
		</node>
		<node id="1476164948" x="653870.6730248623" y="4947191.29429993" >
		</node>
		<node id="1476164949" x="653859.9402902694" y="4947191.6388298245" >
		</node>
		<node id="1476164953" x="653861.7760812833" y="4947192.827345806" >
		</node>
		<node id="1476164955" x="653866.3490938519" y="4947193.992146471" >
		</node>
		<node id="1476164957" x="654082.7456912193" y="4947202.217917411" >
		</node>
		<node id="1476164959" x="654058.2824670282" y="4947206.535914522" >
		</node>
		<node id="1476164961" x="654106.6138437294" y="4947209.544902625" >
		</node>
		<node id="1476164963" x="654127.4565447927" y="4947226.313784618" >
		</node>
		<node id="1476164965" x="653931.0037755219" y="4947300.586462125" >
		</node>
		<node id="1476164970" x="653930.737126898" y="4947320.097110309" >
		</node>
		<node id="1786899256" x="653043.3386358314" y="4946773.200112548" >
		</node>
		<node id="1786899257" x="653068.4020144907" y="4946804.180626616" >
		</node>
		<node id="1786899260" x="653368.7987733597" y="4947148.03845792" >
		</node>
		<node id="2012904697" x="652868.3258330855" y="4946540.856371943" >
		</node>
		<node id="2012904699" x="652924.0655447015" y="4946554.8458286235" >
		</node>
		<node id="2012904703" x="652900.2234186466" y="4946553.981457192" >
		</node>
		<node id="2012904708" x="652961.4726526627" y="4946560.088172503" >
		</node>
		<node id="2021886662" x="653392.2430654687" y="4946387.76922661" >
		</node>
		<node id="2023217212" x="653548.1828644574" y="4946246.763518366" >
		</node>
		<node id="2023217234" x="653398.7338874426" y="4946342.265354588" >
		</node>
		<node id="2023217236" x="653460.8023673443" y="4946367.401809599" >
		</node>
		<node id="2023217237" x="653430.962153472" y="4946366.5264277235" >
		</node>
		<node id="2023217238" x="653404.5666539266" y="4946368.922802344" >
		</node>
		<node id="2023217239" x="653262.1396432784" y="4946370.277559057" >
		</node>
		<node id="2023217240" x="653450.5483590163" y="4946375.594110685" >
		</node>
		<node id="2023217241" x="653409.5269976871" y="4946391.558358788" >
		</node>
		<node id="2023217242" x="653443.4455238407" y="4946395.075699191" >
		</node>
		<node id="2023217243" x="653441.5203724726" y="4946418.014576052" >
		</node>
		<node id="2023217244" x="653456.440494875" y="4946424.793050937" >
		</node>
		<node id="2023217245" x="653466.8715058847" y="4946429.519911155" >
		</node>
		<node id="2023217246" x="653477.3936122528" y="4946432.41507492" >
		</node>
		<node id="2023217247" x="653611.492889998" y="4946469.634231294" >
		</node>
		<node id="2032810861" x="653553.7457823219" y="4947318.715266742" >
		</node>
		<node id="2035506552" x="654183.0214331836" y="4947090.764961675" >
		</node>
		<node id="2035506554" x="654188.594623226" y="4947099.878488286" >
		</node>
		<node id="2035506557" x="654136.999077711" y="4947118.27532698" >
		</node>
		<node id="2035506558" x="654141.8463802278" y="4947127.227002963" >
		</node>
		<node id="2035506563" x="653998.910979199" y="4947245.7102399375" >
		</node>
		<node id="2035506564" x="653978.6171566551" y="4947251.161577015" >
		</node>
		<node id="2035506585" x="654064.5298714128" y="4947335.379439332" >
		</node>
		<node id="2035506603" x="652974.6602563194" y="4947533.397886539" >
		</node>
		<node id="2035506605" x="654160.6027448956" y="4947573.076506107" >
		</node>
		<node id="2035506607" x="652974.7788913272" y="4947556.185199959" >
		</node>
		<node id="2036365615" x="653297.482746699" y="4946356.222714193" >
		</node>
		<node id="2036365642" x="653018.4827570609" y="4946547.5562924035" >
		</node>
		<node id="2036822385" x="653247.8600565861" y="4946380.297472024" >
		</node>
		<node id="2036822386" x="653252.835584515" y="4946386.595086287" >
		</node>
		<node id="2036822387" x="653276.5992098243" y="4946419.890670413" >
		</node>
		<node id="2036822398" x="653428.1858099033" y="4946558.272956022" >
		</node>
		<node id="2036822403" x="653298.4816058725" y="4946590.637945669" >
		</node>
		<node id="2036822414" x="653210.1769341778" y="4946666.6663681585" >
		</node>
		<node id="2036822441" x="653143.8169590372" y="4946722.598869276" >
		</node>
		<node id="2036822451" x="652942.414557343" y="4946734.132634397" >
		</node>
		<node id="2036822466" x="653088.5208397676" y="4946762.611619933" >
		</node>
		<node id="2036822467" x="653080.6684239877" y="4946760.558334475" >
		</node>
		<node id="2036822471" x="653025.6139601271" y="4946754.230347767" >
		</node>
		<node id="2036822473" x="653070.3975858977" y="4946766.494571888" >
		</node>
		<node id="2036822475" x="653084.5509304154" y="4946766.107495454" >
		</node>
		<node id="2036822478" x="653063.1621020252" y="4946770.880039049" >
		</node>
		<node id="2036822479" x="653046.9318104568" y="4946771.206844193" >
		</node>
		<node id="2036822480" x="653078.032171107" y="4946773.388555667" >
		</node>
		<node id="2036822490" x="653036.1308409983" y="4946792.157219762" >
		</node>
		<node id="2036822491" x="653072.6224443519" y="4946798.14548408" >
		</node>
		<node id="2036822494" x="653070.7564266132" y="4946801.235527327" >
		</node>
		<node id="2036822495" x="653032.3989900481" y="4946802.349622556" >
		</node>
		<node id="2036822496" x="653073.6854830204" y="4946804.839303323" >
		</node>
		<node id="2036822497" x="653046.4633714553" y="4946806.383883894" >
		</node>
		<node id="2036822498" x="653059.5732160651" y="4946808.183798976" >
		</node>
		<node id="2036822499" x="653038.1678231824" y="4946809.643939466" >
		</node>
		<node id="2036822502" x="653074.7966473317" y="4946811.845466046" >
		</node>
		<node id="2036822505" x="653024.257638057" y="4946811.826287815" >
		</node>
		<node id="2036822510" x="653067.758330477" y="4946815.946623911" >
		</node>
		<node id="2036822512" x="653028.867807507" y="4946815.7921800455" >
		</node>
		<node id="2036822513" x="653014.2222603625" y="4946823.903324247" >
		</node>
		<node id="2036822528" x="652947.3222198451" y="4946852.194566191" >
		</node>
		<node id="2036822540" x="652961.5055021475" y="4946863.6002931595" >
		</node>
		<node id="2036822548" x="652928.5638155328" y="4946881.248036494" >
		</node>
		<node id="2036822551" x="652948.7693256933" y="4946892.929674441" >
		</node>
		<node id="2036822576" x="652827.3045754984" y="4946937.8801803" >
		</node>
		<node id="2036822601" x="652735.1236029259" y="4946995.784328766" >
		</node>
		<node id="2036822603" x="652726.7981015815" y="4947001.000184906" >
		</node>
		<node id="2036822623" x="653763.780847374" y="4947277.764590468" >
		</node>
		<node id="2036822624" x="653793.4819360212" y="4947287.307674456" >
		</node>
		<node id="2036822625" x="653840.1095363996" y="4947311.869522363" >
		</node>
		<node id="2036822626" x="653817.4935745549" y="4947315.254326951" >
		</node>
		<node id="2037848823" x="654161.3847972231" y="4947643.661076265" >
		</node>
		<node id="2041913883" x="654176.6484057533" y="4946459.655161985" >
		</node>
		<node id="2041913885" x="654220.095770329" y="4946479.064292959" >
		</node>
		<node id="2041913897" x="653858.7481851483" y="4946517.907968483" >
		</node>
		<node id="2041913898" x="654329.2455926592" y="4946529.373908229" >
		</node>
		<node id="2041913902" x="653863.7818913655" y="4946527.397318875" >
		</node>
		<node id="2041913910" x="653829.1007220397" y="4946535.618652374" >
		</node>
		<node id="2041913914" x="653869.3930274481" y="4946537.956298164" >
		</node>
		<node id="2041913925" x="654391.9175721086" y="4946558.268446934" >
		</node>
		<node id="2041913951" x="654452.5203290355" y="4946585.758185384" >
		</node>
		<node id="2041914027" x="654253.7488981152" y="4946706.658598548" >
		</node>
		<node id="2041914060" x="654112.9898806185" y="4946735.775821508" >
		</node>
		<node id="2041914193" x="654284.0270451591" y="4947013.663504293" >
		</node>
		<node id="2480523072" x="653382.5786796955" y="4946344.393685584" >
		</node>
		<node id="2480527065" x="653385.5910433088" y="4946352.845455366" >
		</node>
		<node id="2480527068" x="653393.3934331493" y="4946406.146418071" >
		</node>
		<node id="250854391" x="653295.3677700232" y="4946586.129417275" >
		</node>
		<node id="250854397" x="653385.9947783696" y="4946490.895935953" >
		</node>
		<node id="250854401" x="653386.5473068038" y="4946463.612074488" >
		</node>
		<node id="250854404" x="653387.6146299134" y="4946360.506859988" >
		</node>
		<node id="250854407" x="653375.3928807677" y="4946327.607077924" >
		</node>
		<node id="250854411" x="653391.993419953" y="4946492.1831323225" >
		</node>
		<node id="250854412" x="653405.8430146109" y="4946482.231127966" >
		</node>
		<node id="250854413" x="653406.273096471" y="4946473.138640525" >
		</node>
		<node id="250857516" x="653368.4888656002" y="4946307.63733615" >
		</node>
		<node id="250857518" x="653294.0479190494" y="4946351.528747692" >
		</node>
		<node id="250857519" x="653209.9913008008" y="4946406.8630612455" >
		</node>
		<node id="250857521" x="653138.5867297207" y="4946457.296735941" >
		</node>
		<node id="250857522" x="652977.5461752884" y="4946566.403811171" >
		</node>
		<node id="255384897" x="654216.8220297556" y="4947086.103480813" >
		</node>
		<node id="255384904" x="654119.1798563406" y="4947142.668792965" >
		</node>
		<node id="255396465" x="652981.3982915912" y="4947764.9591720775" >
		</node>
		<node id="255396511" x="652965.3917526227" y="4947356.3928978825" >
		</node>
		<node id="255396512" x="652951.982951039" y="4947014.174715387" >
		</node>
		<node id="255396514" x="652947.9836985379" y="4946870.493376109" >
		</node>
		<node id="282504751" x="653547.6767252594" y="4947324.761733309" >
		</node>
		<node id="282504793" x="653805.2823950939" y="4947357.709749552" >
		</node>
		<node id="282504797" x="653814.5845259293" y="4947342.482159935" >
		</node>
		<node id="282504815" x="653817.4452727498" y="4947334.936880264" >
		</node>
		<node id="282504820" x="653829.524039268" y="4947308.038563677" >
		</node>
		<node id="282504823" x="653852.1432311205" y="4947312.845233372" >
		</node>
		<node id="282504826" x="653861.7413301168" y="4947311.840148692" >
		</node>
		<node id="282504827" x="653874.4461191242" y="4947308.286072138" >
		</node>
		<node id="282504828" x="653753.9048114195" y="4947272.116764713" >
		</node>
		<node id="282504829" x="653617.0358180788" y="4947064.243516412" >
		</node>
		<node id="282504830" x="654069.6233729145" y="4947178.697893594" >
		</node>
		<node id="282504832" x="654039.220304583" y="4947214.550544235" >
		</node>
		<node id="282504833" x="653942.7839286893" y="4947286.240563977" >
		</node>
		<node id="282504834" x="654070.4215089091" y="4947203.435523458" >
		</node>
		<node id="282504836" x="654095.3682906474" y="4947204.119507225" >
		</node>
		<node id="282504837" x="654119.9285275469" y="4947219.009784552" >
		</node>
		<node id="282504838" x="654132.5578685995" y="4947236.916462967" >
		</node>
		<node id="282504839" x="653994.9590844217" y="4947248.772534315" >
		</node>
		<node id="282504840" x="653964.4246822316" y="4947254.5577376755" >
		</node>
		<node id="282504841" x="653934.4129981612" y="4947293.332159531" >
		</node>
		<node id="282504842" x="653928.8356999813" y="4947309.682001149" >
		</node>
		<node id="282504844" x="653934.8743878612" y="4947331.221257035" >
		</node>
		<node id="282504847" x="653907.0704286976" y="4947316.9768300885" >
		</node>
		<node id="282929873" x="653801.6895078197" y="4947373.351153934" >
		</node>
		<node id="288400466" x="653377.4676617458" y="4946474.477588965" >
		</node>
		<node id="288400509" x="653070.2087119297" y="4946775.470519657" >
		</node>
		<node id="288400512" x="653040.1654621238" y="4946801.666677149" >
		</node>
		<node id="288400515" x="653039.3545487958" y="4946777.295855171" >
		</node>
		<node id="288400516" x="653045.7077226959" y="4946771.644649788" >
		</node>
		<node id="288400573" x="652597.8519236634" y="4947080.076850995" >
		</node>
		<node id="2917031641" x="654127.0674494252" y="4946387.0729066655" >
		</node>
		<node id="2919314665" x="654147.8382687005" y="4946429.914529078" >
		</node>
		<node id="2921138151" x="654057.2437425926" y="4947196.208023467" >
		</node>
		<node id="2921138152" x="653931.0143953132" y="4947267.187745828" >
		</node>
		<node id="2921138153" x="653917.2882156947" y="4947288.967328914" >
		</node>
		<node id="2921138154" x="653818.836303691" y="4947324.489072342" >
		</node>
		<node id="2976099656" x="652951.8087493449" y="4946999.755240439" >
		</node>
		<node id="2976099657" x="653024.3645960842" y="4946938.5883594435" >
		</node>
		<node id="2976099658" x="653096.6650807941" y="4947023.148068448" >
		</node>
		<node id="2976104402" x="652955.5393205157" y="4947114.232778281" >
		</node>
		<node id="2976104403" x="653148.7871216992" y="4946989.451000939" >
		</node>
		<node id="309108833" x="653393.3916761815" y="4946423.262559058" >
		</node>
		<node id="309131559" x="653401.360900871" y="4946465.853218517" >
		</node>
		<node id="309131575" x="653348.4437802781" y="4946537.162981846" >
		</node>
		<node id="309131582" x="653069.6831102478" y="4946803.0106268115" >
		</node>
		<node id="309131588" x="652975.5046474872" y="4946854.640151594" >
		</node>
		<node id="309133522" x="652948.9194300043" y="4946906.692827345" >
		</node>
		<node id="3115241412" x="653415.1795992296" y="4946471.571811675" >
		</node>
		<node id="3115241413" x="653431.7932267573" y="4946479.1906845" >
		</node>
		<node id="3115241414" x="653413.4586127594" y="4946478.566367322" >
		</node>
		<node id="3115241415" x="653419.3006408672" y="4946476.426632407" >
		</node>
		<node id="3115241416" x="653416.3312153766" y="4946484.88087351" >
		</node>
		<node id="3115241417" x="653404.062155256" y="4946486.0677725505" >
		</node>
		<node id="313539420" x="654380.176832409" y="4946552.941917471" >
		</node>
		<node id="3301414197" x="653213.0701047576" y="4946671.11405017" >
		</node>
		<node id="3301414198" x="653223.6041447022" y="4946689.213592035" >
		</node>
		<node id="3301414199" x="653214.8033173571" y="4946696.040283617" >
		</node>
		<node id="3301414200" x="653193.474723998" y="4946694.912097115" >
		</node>
		<node id="3301414201" x="653189.4647339635" y="4946700.763213499" >
		</node>
		<node id="3301414202" x="653210.895272666" y="4946701.271399182" >
		</node>
		<node id="3301414206" x="653160.4913654155" y="4946734.664261747" >
		</node>
		<node id="3301414211" x="653246.0653213643" y="4946758.977922775" >
		</node>
		<node id="3301414229" x="653286.6554827705" y="4946819.914194887" >
		</node>
		<node id="3301414254" x="653326.5347199307" y="4946880.355972095" >
		</node>
		<node id="3301414461" x="653172.1501782276" y="4946895.36583344" >
		</node>
		<node id="3301414466" x="653159.6557292393" y="4946973.681716633" >
		</node>
		<node id="3301414467" x="653154.7453438378" y="4946973.687556953" >
		</node>
		<node id="3301414468" x="653164.0123908817" y="4946975.952317116" >
		</node>
		<node id="3301414469" x="653150.3996270474" y="4946975.974124488" >
		</node>
		<node id="3301414470" x="653166.8123817533" y="4946979.975429629" >
		</node>
		<node id="3301414471" x="653147.6148319675" y="4946980.009316372" >
		</node>
		<node id="3301414472" x="653167.4190052784" y="4946984.835689769" >
		</node>
		<node id="3301414473" x="653147.0314682153" y="4946984.874706019" >
		</node>
		<node id="3301414474" x="653165.6841858306" y="4946989.418146161" >
		</node>
		<node id="3301414475" x="653162.0137588137" y="4946992.665440488" >
		</node>
		<node id="3301414476" x="653152.4704992075" y="4946992.683699113" >
		</node>
		<node id="3301414477" x="653157.241961028" y="4946993.852690059" >
		</node>
		<node id="359522741" x="653870.0612782222" y="4947182.01026922" >
		</node>
		<node id="359522922" x="653857.4475743104" y="4947189.389908364" >
		</node>
		<node id="359522924" x="653863.9089159481" y="4947193.533901609" >
		</node>
		<node id="359522925" x="653871.4201766665" y="4947188.566826195" >
		</node>
		<node id="359523577" x="653357.450385065" y="4946438.125141595" >
		</node>
		<node id="359523890" x="653388.012026465" y="4946433.660183892" >
		</node>
		<node id="359524441" x="653368.1933221634" y="4946452.773291577" >
		</node>
		<node id="359525496" x="653710.7973037689" y="4947211.93973139" >
		</node>
		<node id="359526496" x="653640.9957407264" y="4947258.182352302" >
		</node>
		<node id="359529731" x="653436.8031702586" y="4946552.842595202" >
		</node>
		<node id="359530216" x="653322.9509731041" y="4946625.573207629" >
		</node>
		<node id="359530343" x="653471.9197322393" y="4946607.748286495" >
		</node>
		<node id="359530535" x="653361.2727826346" y="4946681.821388194" >
		</node>
		<node id="359530578" x="653481.5614002779" y="4946601.275334307" >
		</node>
		<node id="359530749" x="653579.3854422998" y="4946537.124616119" >
		</node>
		<node id="359530751" x="653698.7485561124" y="4946689.463297012" >
		</node>
		<node id="359533088" x="653302.373239374" y="4947084.198758648" >
		</node>
		<node id="359533504" x="652959.4239550908" y="4947243.296068553" >
		</node>
		<node id="359726698" x="653645.282489178" y="4946869.834715287" >
		</node>
		<node id="359726889" x="653539.8952527668" y="4946939.639576388" >
		</node>
		<node id="359727005" x="653770.2241508851" y="4947182.3670361005" >
		</node>
		<node id="359727006" x="653587.1395678335" y="4946906.374581179" >
		</node>
		<node id="359727008" x="653415.6285583242" y="4946645.43405753" >
		</node>
		<node id="359727215" x="653701.2685937766" y="4947080.340265207" >
		</node>
		<node id="359727627" x="653760.0037559802" y="4947041.881640836" >
		</node>
		<node id="359727628" x="653772.4622548114" y="4947032.364136652" >
		</node>
		<node id="359727630" x="653987.945836962" y="4946882.105820649" >
		</node>
		<node id="359727631" x="654078.1338108273" y="4946970.215524694" >
		</node>
		<node id="359727829" x="653924.8924492789" y="4947149.273002591" >
		</node>
		<node id="359727831" x="653827.8892405097" y="4946999.617973164" >
		</node>
		<node id="359727832" x="653538.8972599935" y="4946562.7257758" >
		</node>
		<node id="359727835" x="653484.5134966825" y="4946478.342241784" >
		</node>
		<node id="359727836" x="653422.6829568993" y="4946474.973159392" >
		</node>
		<node id="359728413" x="653575.9670643935" y="4946451.984696591" >
		</node>
		<node id="359728414" x="653580.1195632054" y="4946473.5342324" >
		</node>
		<node id="359728415" x="653499.607934409" y="4946479.445500941" >
		</node>
		<node id="359728637" x="653618.7518814247" y="4946468.628689459" >
		</node>
		<node id="359728638" x="653624.1299029784" y="4946466.655934325" >
		</node>
		<node id="359728639" x="653628.9181677978" y="4946456.122167855" >
		</node>
		<node id="359729668" x="653656.8262109684" y="4946861.762332625" >
		</node>
		<node id="359729669" x="653714.4545999144" y="4946825.2108150665" >
		</node>
		<node id="359729670" x="653784.4382120502" y="4946781.1959946025" >
		</node>
		<node id="359729959" x="653929.2157001067" y="4946929.554216434" >
		</node>
		<node id="359730280" x="653998.5791420781" y="4947021.39012893" >
		</node>
		<node id="359730282" x="653985.4062003796" y="4947031.245847111" >
		</node>
		<node id="359730430" x="653882.705813681" y="4946966.546514171" >
		</node>
		<node id="359730520" x="653979.9052043356" y="4947110.938813205" >
		</node>
		<node id="359730967" x="654074.3226191666" y="4947042.868844964" >
		</node>
		<node id="359731167" x="653937.1435175737" y="4946918.106283944" >
		</node>
		<node id="359731261" x="653872.2269447942" y="4946852.307073128" >
		</node>
		<node id="359731919" x="652946.5905006626" y="4946832.1713659195" >
		</node>
		<node id="359732063" x="652959.3317644309" y="4946851.211866178" >
		</node>
		<node id="359736773" x="653675.2847974135" y="4947308.94634025" >
		</node>
		<node id="359737243" x="654056.831845597" y="4946840.935252324" >
		</node>
		<node id="359739377" x="653528.9615956129" y="4946480.07626054" >
		</node>
		<node id="359740554" x="653873.6042478916" y="4946787.487051609" >
		</node>
		<node id="359740555" x="653890.6121666083" y="4946813.466524685" >
		</node>
		<node id="359740556" x="653885.6997052378" y="4946843.525247664" >
		</node>
		<node id="359740572" x="653967.4047514182" y="4946896.554063408" >
		</node>
		<node id="359741390" x="654154.061707757" y="4946444.056124006" >
		</node>
		<node id="359741392" x="654215.9208331152" y="4946605.4473639885" >
		</node>
		<node id="359741393" x="654274.213937442" y="4946762.886392512" >
		</node>
		<node id="359742127" x="654061.1917885888" y="4946420.556834698" >
		</node>
		<node id="359742128" x="654045.8381476242" y="4946426.659371237" >
		</node>
		<node id="359742129" x="653843.7047012354" y="4946552.982592168" >
		</node>
		<node id="359742130" x="653838.0549289245" y="4946558.038509652" >
		</node>
		<node id="359742131" x="653833.4852367548" y="4946567.04354701" >
		</node>
		<node id="359742132" x="653865.9710566628" y="4946649.997342685" >
		</node>
		<node id="359742133" x="653882.7276987943" y="4946670.224614987" >
		</node>
		<node id="359742134" x="653924.1996596543" y="4946697.931695418" >
		</node>
		<node id="359742136" x="653982.8832176543" y="4946722.748271707" >
		</node>
		<node id="359742138" x="654009.7108938271" y="4946745.772274948" >
		</node>
		<node id="359742141" x="654027.4941305716" y="4946765.168618383" >
		</node>
		<node id="359742147" x="654060.2218834019" y="4946852.1305624" >
		</node>
		<node id="359742149" x="654284.1370573703" y="4946801.790655855" >
		</node>
		<node id="359742197" x="653956.2933589099" y="4946647.125337578" >
		</node>
		<node id="359742221" x="654226.557301386" y="4946632.109258629" >
		</node>
		<node id="359742418" x="654167.6144064373" y="4946649.408133071" >
		</node>
		<node id="359742421" x="654142.3527640055" y="4946669.478293622" >
		</node>
		<node id="359742423" x="653945.3876442765" y="4946705.9610236045" >
		</node>
		<node id="359873735" x="652950.9184826589" y="4946970.014311957" >
		</node>
		<node id="359873981" x="652943.5694192064" y="4946631.0630538445" >
		</node>
		<node id="359874115" x="652817.0358870901" y="4946676.805350078" >
		</node>
		<node id="359874116" x="652792.136680388" y="4946673.026618585" >
		</node>
		<node id="359874118" x="652769.7124826066" y="4946678.642569555" >
		</node>
		<node id="359874119" x="652754.0218323888" y="4946689.019144774" >
		</node>
		<node id="359874120" x="652734.3028290152" y="4946718.795100388" >
		</node>
		<node id="359874890" x="652611.3993210495" y="4947225.839335932" >
		</node>
		<node id="359874936" x="652628.4190840332" y="4947362.581304608" >
		</node>
		<node id="359875316" x="652801.3949244986" y="4947264.585452274" >
		</node>
		<node id="359875318" x="652820.9324720826" y="4947262.546920802" >
		</node>
		<node id="359875320" x="652839.5722340319" y="4947271.968354587" >
		</node>
		<node id="359875322" x="652853.4937559975" y="4947269.596981509" >
		</node>
		<node id="359875326" x="652908.4626600039" y="4947234.453930277" >
		</node>
		<node id="359875328" x="652921.719375019" y="4947231.689072887" >
		</node>
		<node id="359875331" x="652931.9555547631" y="4947235.221269628" >
		</node>
		<node id="359875333" x="652952.6495598602" y="4947241.96864454" >
		</node>
		<node id="359875408" x="652906.8682814637" y="4947179.833468997" >
		</node>
		<node id="359875411" x="652774.7526768099" y="4947124.314339085" >
		</node>
		<node id="359876196" x="652859.7288162956" y="4947266.899248776" >
		</node>
		<node id="359876654" x="653299.6414521309" y="4947321.971232143" >
		</node>
		<node id="359876656" x="652975.3548560296" y="4947575.737943457" >
		</node>
		<node id="359876677" x="652653.5355488597" y="4947047.249190055" >
		</node>
		<node id="359876779" x="652667.6618653701" y="4947191.291681983" >
		</node>
		<node id="359877508" x="654470.7042042966" y="4946594.006407031" >
		</node>
		<node id="359877513" x="654254.2252881296" y="4946707.970367249" >
		</node>
		<node id="359877552" x="654366.054460902" y="4946546.024707724" >
		</node>
		<node id="359877554" x="654159.2794273053" y="4946455.12836597" >
		</node>
		<node id="359877640" x="654288.8169606676" y="4947013.3888974115" >
		</node>
		<node id="359880469" x="653339.4897771716" y="4946547.086800901" >
		</node>
		<node id="359880567" x="653257.2377783675" y="4946435.458345681" >
		</node>
		<node id="359882776" x="652932.8368780522" y="4946539.204356007" >
		</node>
		<node id="359882777" x="652848.683368452" y="4946539.524728708" >
		</node>
		<node id="359882778" x="652828.5520310784" y="4946536.725600252" >
		</node>
		<node id="359882779" x="652815.6764645737" y="4946534.387121103" >
		</node>
		<node id="359882780" x="652815.1711599692" y="4946526.906320124" >
		</node>
		<node id="359882781" x="652829.5547194536" y="4946523.178684467" >
		</node>
		<node id="359882782" x="652848.6555813763" y="4946521.585491309" >
		</node>
		<node id="359882783" x="652933.2792174375" y="4946521.1873202855" >
		</node>
		<node id="359882784" x="652983.727282467" y="4946529.161416893" >
		</node>
		<node id="359882809" x="652970.2065297272" y="4946555.7491761735" >
		</node>
		<node id="3692251251" x="653017.0778442723" y="4946540.554305029" >
		</node>
		<node id="370043631" x="652961.0441742085" y="4946543.673215899" >
		</node>
		<node id="370043633" x="652917.3426160545" y="4946537.570578396" >
		</node>
		<node id="370043639" x="653061.3118370343" y="4946510.115041851" >
		</node>
		<node id="370043640" x="653051.4757293585" y="4946516.77294396" >
		</node>
		<node id="370304526" x="652969.7471671639" y="4946571.465137085" >
		</node>
		<node id="3857713771" x="653303.5000428575" y="4946597.792438291" >
		</node>
		<node id="3857713772" x="653410.3618916733" y="4946753.974596438" >
		</node>
		<node id="3857713776" x="653706.5068082308" y="4947204.902222197" >
		</node>
		<node id="3857713777" x="653661.8740945408" y="4947136.775791114" >
		</node>
		<node id="386879977" x="654150.4926284238" y="4946615.922922151" >
		</node>
		<node id="386879978" x="654106.5222837406" y="4946529.337026588" >
		</node>
		<node id="386879981" x="654245.2821486802" y="4946584.141606782" >
		</node>
		<node id="386879982" x="654278.1682485002" y="4946665.395658901" >
		</node>
		<node id="386880432" x="654228.0866097633" y="4946482.6338339085" >
		</node>
		<node id="386884083" x="654249.0991291411" y="4947015.685831602" >
		</node>
		<node id="386884084" x="654150.5596764599" y="4947036.99640304" >
		</node>
		<node id="3874893757" x="653703.6101858311" y="4947216.625723618" >
		</node>
		<node id="3878613512" x="653541.50042822" y="4947318.635350327" >
		</node>
		<node id="3933846167" x="653536.2187103753" y="4946479.148383606" >
		</node>
		<node id="3933846168" x="653525.6709177538" y="4946480.009181461" >
		</node>
		<node id="4078761121" x="652803.9265473401" y="4946673.294343126" >
		</node>