<?xml version="1.0" encoding="utf-8"?>
<!DOCTYPE population SYSTEM "http://www.matsim.org/files/dtd/population_v6.dtd">

<population>



<!-- ====================================================================== -->

	<person id="0">
		<attributes>
			<attribute name="drivelogic" class="java.lang.String" >org.matsim.contrib.smartcity.agent.CLASSDriverLogicBasic</attribute>
		</attributes>
		<plan selected="yes">
			<activity type="h" link="992" max_dur="09:19:15" >
			</activity>
			<leg mode="car">
			</leg>
			<activity type="w" link="636" start_time="09:20:28" end_time="19:02:20" >
			</activity>
			<leg mode="car">
			</leg>
			<activity type="h" link="992" >
			</activity>
		</plan>

	</person>

<!-- ====================================================================== -->

	<person id="1">
		<attributes>
			<attribute name="drivelogic" class="java.lang.String" >org.matsim.contrib.smartcity.agent.CLASSDriverLogicBasic</attribute>
		</attributes>
		<plan selected="yes">
			<activity type="h" link="1062" max_dur="08:25:49" >
			</activity>
			<leg mode="car">
			</leg>
			<activity type="w" link="1151" start_time="08:28:53" end_time="16:51:48" >
			</activity>
			<leg mode="car">
			</leg>
			<activity type="h" link="1062" >
			</activity>
		</plan>

	</person>

<!-- ====================================================================== -->

	<person id="10">
		<attributes>
			<attribute name="drivelogic" class="java.lang.String" >org.matsim.contrib.smartcity.agent.CLASSDriverLogicBasic</attribute>
		</attributes>
		<plan selected="yes">
			<activity type="h" link="629" max_dur="09:56:40" >
			</activity>
			<leg mode="car">
			</leg>
			<activity type="w" link="1043" start_time="09:57:16" end_time="17:46:06" >
			</activity>
			<leg mode="car">
			</leg>
			<activity type="h" link="629" >
			</activity>
		</plan>

	</person>

<!-- ====================================================================== -->

	<person id="100">
		<attributes>
			<attribute name="drivelogic" class="java.lang.String" >org.matsim.contrib.smartcity.agent.CLASSDriverLogicBasic</attribute>
		</attributes>
		<plan selected="yes">
			<activity type="h" link="564" max_dur="10:26:41" >
			</activity>
			<leg mode="car">
			</leg>
			<activity type="w" link="1069" start_time="10:29:45" end_time="17:08:41" >
			</activity>
			<leg mode="car">
			</leg>
			<activity type="h" link="564" >
			</activity>
		</plan>

	</person>

<!-- ====================================================================== -->

	<person id="1000">
		<attributes>
			<attribute name="drivelogic" class="java.lang.String" >org.matsim.contrib.smartcity.agent.CLASSDriverLogicBasic</attribute>
		</attributes>
		<plan selected="yes">
			<activity type="h" link="932" max_dur="08:53:03" >
			</activity>
			<leg mode="car">
			</leg>
			<activity type="w" link="634" start_time="08:55:43" end_time="16:26:50" >
			</activity>
			<leg mode="car">
			</leg>
			<activity type="h" link="932" >
			</activity>
		</plan>

	</person>

<!-- ====================================================================== -->

	<person id="1001">
		<attributes>
			<attribute name="drivelogic" class="java.lang.String" >org.matsim.contrib.smartcity.agent.CLASSDriverLogicBasic</attribute>
		</attributes>
		<plan selected="yes">
			<activity type="h" link="648" max_dur="07:49:48" >
			</activity>
			<leg mode="car">
			</leg>
			<activity type="w" link="495" start_time="07:50:32" end_time="17:49:19" >
			</activity>
			<leg mode="car">
			</leg>
			<activity type="h" link="648" >
			</activity>
		</plan>

	</person>

<!-- ====================================================================== -->

	<person id="1002">
		<attributes>
			<attribute name="drivelogic" class="java.lang.String" >org.matsim.contrib.smartcity.agent.CLASSDriverLogicBasic</attribute>
		</attributes>
		<plan selected="yes">
			<activity type="h" link="707" max_dur="09:24:13" >
			</activity>
			<leg mode="car">
			</leg>
			<activity type="w" link="1030" start_time="09:27:41" end_time="19:12:50" >
			</activity>
			<leg mode="car">
			</leg>
			<activity type="h" link="707" >
			</activity>
		</plan>

	</person>

<!-- ====================================================================== -->

	<person id="1003">
		<attributes>
			<attribute name="drivelogic" class="java.lang.String" >org.matsim.contrib.smartcity.agent.CLASSDriverLogicBasic</attribute>
		</attributes>
		<plan selected="yes">
			<activity type="h" link="218" max_dur="06:50:18" >
			</activity>
			<leg mode="car">
			</leg>
			<activity type="w" link="867" start_time="06:52:17" end_time="20:14:46" >
			</activity>
			<leg mode="car">
			</leg>
			<activity type="h" link="218" >
			</activity>
		</plan>

	</person>

<!-- ====================================================================== -->

	<person id="1004">
		<attributes>
			<attribute name="drivelogic" class="java.lang.String" >org.matsim.contrib.smartcity.agent.CLASSDriverLogicBasic</attribute>
		</attributes>
		<plan selected="yes">
			<activity type="h" link="273" max_dur="09:22:19" >
			</activity>
			<leg mode="car">
			</leg>
			<activity type="w" link="496" start_time="09:24:35" end_time="18:25:17" >
			</activity>
			<leg mode="car">
			</leg>
			<activity type="h" link="273" >
			</activity>
		</plan>

	</person>

<!-- ====================================================================== -->

	<person id="1005">
		<attributes>
			<attribute name="drivelogic" class="java.lang.String" >org.matsim.contrib.smartcity.agent.CLASSDriverLogicBasic</attribute>
		</attributes>
		<plan selected="yes">
			<activity type="h" link="435" max_dur="08:09:10" >
			</activity>
			<leg mode="car">
			</leg>
			<activity type="w" link="402" start_time="08:09:15" end_time="19:40:04" >
			</activity>
			<leg mode="car">
			</leg>
			<activity type="h" link="435" >
			</activity>
		</plan>

	</person>

<!-- ====================================================================== -->

	<person id="1006">
		<attributes>
			<attribute name="drivelogic" class="java.lang.String" >org.matsim.contrib.smartcity.agent.CLASSDriverLogicBasic</attribute>
		</attributes>
		<plan selected="yes">
			<activity type="h" link="937" max_dur="09:36:35" >
			</activity>
			<leg mode="car">
			</leg>
			<activity type="w" link="1128" start_time="09:39:19" end_time="17:50:21" >
			</activity>
			<leg mode="car">
			</leg>
			<activity type="h" link="937" >
			</activity>
		</plan>

	</person>

<!-- ====================================================================== -->

	<person id="1007">
		<attributes>
			<attribute name="drivelogic" class="java.lang.String" >org.matsim.contrib.smartcity.agent.CLASSDriverLogicBasic</attribute>
		</attributes>
		<plan selected="yes">
			<activity type="h" link="1064" max_dur="07:46:10" >
			</activity>
			<leg mode="car">
			</leg>
			<activity type="w" link="753" start_time="07:47:46" end_time="17:26:13" >
			</activity>
			<leg mode="car">
			</leg>
			<activity type="h" link="1064" >
			</activity>
		</plan>

	</person>

<!-- ====================================================================== -->

	<person id="1008">
		<attributes>
			<attribute name="drivelogic" class="java.lang.String" >org.matsim.contrib.smartcity.agent.CLASSDriverLogicBasic</attribute>
		</attributes>
		<plan selected="yes">
			<activity type="h" link="893" max_dur="08:28:45" >
			</activity>
			<leg mode="car">
			</leg>
			<activity type="w" link="389" start_time="08:30:10" end_time="17:10:53" >
			</activity>
			<leg mode="car">
			</leg>
			<activity type="h" link="893" >
			</activity>
		</plan>

	</person>

<!-- ====================================================================== -->

	<person id="1009">
		<attributes>
			<attribute name="drivelogic" class="java.lang.String" >org.matsim.contrib.smartcity.agent.CLASSDriverLogicBasic</attribute>
		</attributes>
		<plan selected="yes">
			<activity type="h" link="387" max_dur="08:21:27" >
			</activity>
			<leg mode="car">
			</leg>
			<activity type="w" link="343" start_time="08:23:39" end_time="19:25:06" >
			</activity>
			<leg mode="car">
			</leg>
			<activity type="h" link="387" >
			</activity>
		</plan>

	</person>

<!-- ====================================================================== -->

	<person id="101">
		<attributes>
			<attribute name="drivelogic" class="java.lang.String" >org.matsim.contrib.smartcity.agent.CLASSDriverLogicBasic</attribute>
		</attributes>
		<plan selected="yes">
			<activity type="h" link="282" max_dur="08:45:51" >
			</activity>
			<leg mode="car">
			</leg>
			<activity type="w" link="376" start_time="08:46:43" end_time="17:32:57" >
			</activity>
			<leg mode="car">
			</leg>
			<activity type="h" link="282" >
			</activity>
		</plan>

	</person>

<!-- ====================================================================== -->

	<person id="1010">
		<attributes>
			<attribute name="drivelogic" class="java.lang.String" >org.matsim.contrib.smartcity.agent.CLASSDriverLogicBasic</attribute>
		</attributes>
		<plan selected="yes">
			<activity type="h" link="984" max_dur="08:50:54" >
			</activity>
			<leg mode="car">
			</leg>
			<activity type="w" link="564" start_time="08:52:32" end_time="17:46:08" >
			</activity>
			<leg mode="car">
			</leg>
			<activity type="h" link="984" >
			</activity>
		</plan>

	</person>

<!-- ====================================================================== -->

	<person id="1011">
		<attributes>
			<attribute name="drivelogic" class="java.lang.String" >org.matsim.contrib.smartcity.agent.CLASSDriverLogicBasic</attribute>
		</attributes>
		<plan selected="yes">
			<activity type="h" link="725" max_dur="09:37:38" >
			</activity>
			<leg mode="car">
			</leg>
			<activity type="w" link="889" start_time="09:38:35" end_time="18:47:37" >
			</activity>
			<leg mode="car">
			</leg>
			<activity type="h" link="725" >
			</activity>
		</plan>

	</person>

<!-- ====================================================================== -->

	<person id="1012">
		<attributes>
			<attribute name="drivelogic" class="java.lang.String" >org.matsim.contrib.smartcity.agent.CLASSDriverLogicBasic</attribute>
		</attributes>
		<plan selected="yes">
			<activity type="h" link="843" max_dur="10:23:33" >
			</activity>
			<leg mode="car">
			</leg>
			<activity type="w" link="675" start_time="10:26:21" end_time="18:41:24" >
			</activity>
			<leg mode="car">
			</leg>
			<activity type="h" link="843" >
			</activity>
		</plan>

	</person>

<!-- ====================================================================== -->

	<person id="1013">
		<attributes>
			<attribute name="drivelogic" class="java.lang.String" >org.matsim.contrib.smartcity.agent.CLASSDriverLogicBasic</attribute>
		</attributes>
		<plan selected="yes">
			<activity type="h" link="254" max_dur="09:07:38" >
			</activity>
			<leg mode="car">
			</leg>
			<activity type="w" link="1139" start_time="09:10:26" end_time="16:28:16" >
			</activity>
			<leg mode="car">
			</leg>
			<activity type="h" link="254" >
			</activity>
		</plan>

	</person>

<!-- ====================================================================== -->

	<person id="1014">
		<attributes>
			<attribute name="drivelogic" class="java.lang.String" >org.matsim.contrib.smartcity.agent.CLASSDriverLogicBasic</attribute>
		</attributes>
		<plan selected="yes">
			<activity type="h" link="1116" max_dur="08:01:52" >
			</activity>
			<leg mode="car">
			</leg>
			<activity type="w" link="738" start_time="08:05:43" end_time="19:42:53" >
			</activity>
			<leg mode="car">
			</leg>
			<activity type="h" link="1116" >
			</activity>
		</plan>

	</person>

<!-- ====================================================================== -->

	<person id="1015">
		<attributes>
			<attribute name="drivelogic" class="java.lang.String" >org.matsim.contrib.smartcity.agent.CLASSDriverLogicBasic</attribute>
		</attributes>
		<plan selected="yes">
			<activity type="h" link="466" max_dur="10:25:22" >
			</activity>
			<leg mode="car">
			</leg>
			<activity type="w" link="507" start_time="10:29:15" end_time="18:57:19" >
			</activity>
			<leg mode="car">
			</leg>
			<activity type="h" link="466" >
			</activity>
		</plan>

	</person>

<!-- ====================================================================== -->

	<person id="1016">
		<attributes>
			<attribute name="drivelogic" class="java.lang.String" >org.matsim.contrib.smartcity.agent.CLASSDriverLogicBasic</attribute>
		</attributes>
		<plan selected="yes">
			<activity type="h" link="567" max_dur="08:52:55" >
			</activity>
			<leg mode="car">
			</leg>
			<activity type="w" link="594" start_time="08:56:27" end_time="17:27:34" >
			</activity>
			<leg mode="car">
			</leg>
			<activity type="h" link="567" >
			</activity>
		</plan>

	</person>

<!-- ====================================================================== -->

	<person id="1017">
		<attributes>
			<attribute name="drivelogic" class="java.lang.String" >org.matsim.contrib.smartcity.agent.CLASSDriverLogicBasic</attribute>
		</attributes>
		<plan selected="yes">
			<activity type="h" link="1096" max_dur="08:31:46" >
			</activity>
			<leg mode="car">
			</leg>
			<activity type="w" link="777" start_time="08:33:49" end_time="18:25:01" >
			</activity>
			<leg mode="car">
			</leg>
			<activity type="h" link="1096" >
			</activity>
		</plan>

	</person>

<!-- ====================================================================== -->

	<person id="1018">
		<attributes>
			<attribute name="drivelogic" class="java.lang.String" >org.matsim.contrib.smartcity.agent.CLASSDriverLogicBasic</attribute>
		</attributes>
		<plan selected="yes">
			<activity type="h" link="39" max_dur="09:26:01" >
			</activity>
			<leg mode="car">
			</leg>
			<activity type="w" link="494" start_time="09:29:59" end_time="16:39:06" >
			</activity>
			<leg mode="car">
			</leg>
			<activity type="h" link="39" >
			</activity>
		</plan>

	</person>

<!-- ====================================================================== -->

	<person id="1019">
		<attributes>
			<attribute name="drivelogic" class="java.lang.String" >org.matsim.contrib.smartcity.agent.CLASSDriverLogicBasic</attribute>
		</attributes>
		<plan selected="yes">
			<activity type="h" link="1167" max_dur="08:58:53" >
			</activity>
			<leg mode="car">
			</leg>
			<activity type="w" link="729" start_time="09:01:54" end_time="18:02:06" >
			</activity>
			<leg mode="car">
			</leg>
			<activity type="h" link="1167" >
			</activity>
		</plan>

	</person>

<!-- ====================================================================== -->

	<person id="102">
		<attributes>
			<attribute name="drivelogic" class="java.lang.String" >org.matsim.contrib.smartcity.agent.CLASSDriverLogicBasic</attribute>
		</attributes>
		<plan selected="yes">
			<activity type="h" link="869" max_dur="07:39:13" >
			</activity>
			<leg mode="car">
			</leg>
			<activity type="w" link="166" start_time="07:42:49" end_time="17:16:02" >
			</activity>
			<leg mode="car">
			</leg>
			<activity type="h" link="869" >
			</activity>
		</plan>

	</person>

<!-- ====================================================================== -->

	<person id="1020">
		<attributes>
			<attribute name="drivelogic" class="java.lang.String" >org.matsim.contrib.smartcity.agent.CLASSDriverLogicBasic</attribute>
		</attributes>
		<plan selected="yes">
			<activity type="h" link="437" max_dur="09:52:55" >
			</activity>
			<leg mode="car">
			</leg>
			<activity type="w" link="57" start_time="09:54:21" end_time="18:25:26" >
			</activity>
			<leg mode="car">
			</leg>
			<activity type="h" link="437" >
			</activity>
		</plan>

	</person>

<!-- ====================================================================== -->

	<person id="1021">
		<attributes>
			<attribute name="drivelogic" class="java.lang.String" >org.matsim.contrib.smartcity.agent.CLASSDriverLogicBasic</attribute>
		</attributes>
		<plan selected="yes">
			<activity type="h" link="196" max_dur="09:22:27" >
			</activity>
			<leg mode="car">
			</leg>
			<activity type="w" link="397" start_time="09:24:56" end_time="17:42:11" >
			</activity>
			<leg mode="car">
			</leg>
			<activity type="h" link="196" >
			</activity>
		</plan>

	</person>

<!-- ====================================================================== -->

	<person id="1022">
		<attributes>
			<attribute name="drivelogic" class="java.lang.String" >org.matsim.contrib.smartcity.agent.CLASSDriverLogicBasic</attribute>
		</attributes>
		<plan selected="yes">
			<activity type="h" link="739" max_dur="09:02:32" >
			</activity>
			<leg mode="car">
			</leg>
			<activity type="w" link="907" start_time="09:04:12" end_time="19:04:32" >
			</activity>
			<leg mode="car">
			</leg>
			<activity type="h" link="739" >
			</activity>
		</plan>

	</person>

<!-- ====================================================================== -->

	<person id="1023">
		<attributes>
			<attribute name="drivelogic" class="java.lang.String" >org.matsim.contrib.smartcity.agent.CLASSDriverLogicBasic</attribute>
		</attributes>
		<plan selected="yes">
			<activity type="h" link="484" max_dur="09:29:52" >
			</activity>
			<leg mode="car">
			</leg>
			<activity type="w" link="246" start_time="09:32:43" end_time="18:24:37" >
			</activity>
			<leg mode="car">
			</leg>
			<activity type="h" link="484" >
			</activity>
		</plan>

	</person>

<!-- ====================================================================== -->

	<person id="1024">
		<attributes>
			<attribute name="drivelogic" class="java.lang.String" >org.matsim.contrib.smartcity.agent.CLASSDriverLogicBasic</attribute>
		</attributes>
		<plan selected="yes">
			<activity type="h" link="544" max_dur="09:10:08" >
			</activity>
			<leg mode="car">
			</leg>
			<activity type="w" link="767" start_time="09:11:29" end_time="18:29:40" >
			</activity>
			<leg mode="car">
			</leg>
			<activity type="h" link="544" >
			</activity>
		</plan>

	</person>

<!-- ====================================================================== -->

	<person id="1025">
		<attributes>
			<attribute name="drivelogic" class="java.lang.String" >org.matsim.contrib.smartcity.agent.CLASSDriverLogicBasic</attribute>
		</attributes>
		<plan selected="yes">
			<activity type="h" link="100" max_dur="08:54:23" >
			</activity>
			<leg mode="car">
			</leg>
			<activity type="w" link="470" start_time="08:55:33" end_time="18:22:30" >
			</activity>
			<leg mode="car">
			</leg>
			<activity type="h" link="100" >
			</activity>
		</plan>

	</person>

<!-- ====================================================================== -->

	<person id="1026">
		<attributes>
			<attribute name="drivelogic" class="java.lang.String" >org.matsim.contrib.smartcity.agent.CLASSDriverLogicBasic</attribute>
		</attributes>
		<plan selected="yes">
			<activity type="h" link="1203" max_dur="08:54:17" >
			</activity>
			<leg mode="car">
			</leg>
			<activity type="w" link="91" start_time="08:55:20" end_time="16:18:59" >
			</activity>
			<leg mode="car">
			</leg>
			<activity type="h" link="1203" >
			</activity>
		</plan>

	</person>

<!-- ====================================================================== -->

	<person id="1027">
		<attributes>
			<attribute name="drivelogic" class="java.lang.String" >org.matsim.contrib.smartcity.agent.CLASSDriverLogicBasic</attribute>
		</attributes>
		<plan selected="yes">
			<activity type="h" link="867" max_dur="08:18:15" >
			</activity>
			<leg mode="car">
			</leg>
			<activity type="w" link="221" start_time="08:20:58" end_time="18:06:44" >
			</activity>
			<leg mode="car">
			</leg>
			<activity type="h" link="867" >
			</activity>
		</plan>

	</person>

<!-- ====================================================================== -->

	<person id="1028">
		<attributes>
			<attribute name="drivelogic" class="java.lang.String" >org.matsim.contrib.smartcity.agent.CLASSDriverLogicBasic</attribute>
		</attributes>
		<plan selected="yes">
			<activity type="h" link="594" max_dur="08:34:55" >
			</activity>
			<leg mode="car">
			</leg>
			<activity type="w" link="1165" start_time="08:37:11" end_time="17:57:31" >
			</activity>
			<leg mode="car">
			</leg>
			<activity type="h" link="594" >
			</activity>
		</plan>

	</person>

<!-- ====================================================================== -->

	<person id="1029">
		<attributes>
			<attribute name="drivelogic" class="java.lang.String" >org.matsim.contrib.smartcity.agent.CLASSDriverLogicBasic</attribute>
		</attributes>
		<plan selected="yes">
			<activity type="h" link="745" max_dur="08:35:00" >
			</activity>
			<leg mode="car">
			</leg>
			<activity type="w" link="430" start_time="08:39:42" end_time="17:57:44" >
			</activity>
			<leg mode="car">
			</leg>
			<activity type="h" link="745" >
			</activity>
		</plan>

	</person>

<!-- ====================================================================== -->

	<person id="103">
		<attributes>
			<attribute name="drivelogic" class="java.lang.String" >org.matsim.contrib.smartcity.agent.CLASSDriverLogicBasic</attribute>
		</attributes>
		<plan selected="yes">
			<activity type="h" link="168" max_dur="08:39:43" >
			</activity>
			<leg mode="car">
			</leg>
			<activity type="w" link="756" start_time="08:45:06" end_time="18:28:32" >
			</activity>
			<leg mode="car">
			</leg>
			<activity type="h" link="168" >
			</activity>
		</plan>

	</person>

<!-- ====================================================================== -->

	<person id="1030">
		<attributes>
			<attribute name="drivelogic" class="java.lang.String" >org.matsim.contrib.smartcity.agent.CLASSDriverLogicBasic</attribute>
		</attributes>
		<plan selected="yes">
			<activity type="h" link="812" max_dur="07:49:58" >
			</activity>
			<leg mode="car">
			</leg>
			<activity type="w" link="1025" start_time="07:52:39" end_time="17:30:45" >
			</activity>
			<leg mode="car">
			</leg>
			<activity type="h" link="812" >
			</activity>
		</plan>

	</person>

<!-- ====================================================================== -->

	<person id="1031">
		<attributes>
			<attribute name="drivelogic" class="java.lang.String" >org.matsim.contrib.smartcity.agent.CLASSDriverLogicBasic</attribute>
		</attributes>
		<plan selected="yes">
			<activity type="h" link="724" max_dur="08:45:40" >
			</activity>
			<leg mode="car">
			</leg>
			<activity type="w" link="940" start_time="08:48:33" end_time="17:09:40" >
			</activity>
			<leg mode="car">
			</leg>
			<activity type="h" link="724" >
			</activity>
		</plan>

	</person>

<!-- ====================================================================== -->

	<person id="1032">
		<attributes>
			<attribute name="drivelogic" class="java.lang.String" >org.matsim.contrib.smartcity.agent.CLASSDriverLogicBasic</attribute>
		</attributes>
		<plan selected="yes">
			<activity type="h" link="1048" max_dur="10:14:03" >
			</activity>
			<leg mode="car">
			</leg>
			<activity type="w" link="650" start_time="10:16:09" end_time="18:50:41" >
			</activity>
			<leg mode="car">
			</leg>
			<activity type="h" link="1048" >
			</activity>
		</plan>

	</person>

<!-- ====================================================================== -->

	<person id="1033">
		<attributes>
			<attribute name="drivelogic" class="java.lang.String" >org.matsim.contrib.smartcity.agent.CLASSDriverLogicBasic</attribute>
		</attributes>
		<plan selected="yes">
			<activity type="h" link="668" max_dur="10:35:20" >
			</activity>
			<leg mode="car">
			</leg>
			<activity type="w" link="1041" start_time="10:36:14" end_time="18:06:53" >
			</activity>
			<leg mode="car">
			</leg>
			<activity type="h" link="668" >
			</activity>
		</plan>

	</person>

<!-- ====================================================================== -->

	<person id="1034">
		<attributes>
			<attribute name="drivelogic" class="java.lang.String" >org.matsim.contrib.smartcity.agent.CLASSDriverLogicBasic</attribute>
		</attributes>
		<plan selected="yes">
			<activity type="h" link="754" max_dur="07:37:22" >
			</activity>
			<leg mode="car">
			</leg>
			<activity type="w" link="1128" start_time="07:40:46" end_time="18:08:47" >
			</activity>
			<leg mode="car">
			</leg>
			<activity type="h" link="754" >
			</activity>
		</plan>

	</person>

<!-- ====================================================================== -->

	<person id="1035">
		<attributes>
			<attribute name="drivelogic" class="java.lang.String" >org.matsim.contrib.smartcity.agent.CLASSDriverLogicBasic</attribute>
		</attributes>
		<plan selected="yes">
			<activity type="h" link="374" max_dur="10:20:54" >
			</activity>
			<leg mode="car">
			</leg>
			<activity type="w" link="1049" start_time="10:23:26" end_time="17:17:40" >
			</activity>
			<leg mode="car">
			</leg>
			<activity type="h" link="374" >
			</activity>
		</plan>

	</person>

<!-- ====================================================================== -->

	<person id="1036">
		<attributes>
			<attribute name="drivelogic" class="java.lang.String" >org.matsim.contrib.smartcity.agent.CLASSDriverLogicBasic</attribute>
		</attributes>
		<plan selected="yes">
			<activity type="h" link="1179" max_dur="07:38:06" >
			</activity>
			<leg mode="car">
			</leg>
			<activity type="w" link="1028" start_time="07:40:13" end_time="17:45:51" >
			</activity>
			<leg mode="car">
			</leg>
			<activity type="h" link="1179" >
			</activity>
		</plan>

	</person>

<!-- ====================================================================== -->

	<person id="1037">
		<attributes>
			<attribute name="drivelogic" class="java.lang.String" >org.matsim.contrib.smartcity.agent.CLASSDriverLogicBasic</attribute>
		</attributes>
		<plan selected="yes">
			<activity type="h" link="574" max_dur="08:52:35" >
			</activity>
			<leg mode="car">
			</leg>
			<activity type="w" link="1079" start_time="08:54:01" end_time="19:01:02" >
			</activity>
			<leg mode="car">
			</leg>
			<activity type="h" link="574" >
			</activity>
		</plan>

	</person>

<!-- ====================================================================== -->

	<person id="1038">
		<attributes>
			<attribute name="drivelogic" class="java.lang.String" >org.matsim.contrib.smartcity.agent.CLASSDriverLogicBasic</attribute>
		</attributes>
		<plan selected="yes">
			<activity type="h" link="1135" max_dur="09:16:02" >
			</activity>
			<leg mode="car">
			</leg>
			<activity type="w" link="472" start_time="09:21:59" end_time="17:20:34" >
			</activity>
			<leg mode="car">
			</leg>
			<activity type="h" link="1135" >
			</activity>
		</plan>

	</person>

<!-- ====================================================================== -->

	<person id="1039">
		<attributes>
			<attribute name="drivelogic" class="java.lang.String" >org.matsim.contrib.smartcity.agent.CLASSDriverLogicBasic</attribute>
		</attributes>
		<plan selected="yes">
			<activity type="h" link="39" max_dur="09:51:35" >
			</activity>
			<leg mode="car">
			</leg>
			<activity type="w" link="187" start_time="09:56:11" end_time="18:10:36" >
			</activity>
			<leg mode="car">
			</leg>
			<activity type="h" link="39" >
			</activity>
		</plan>

	</person>

<!-- ====================================================================== -->

	<person id="104">
		<attributes>
			<attribute name="drivelogic" class="java.lang.String" >org.matsim.contrib.smartcity.agent.CLASSDriverLogicBasic</attribute>
		</attributes>
		<plan selected="yes">
			<activity type="h" link="1103" max_dur="08:35:19" >
			</activity>
			<leg mode="car">
			</leg>
			<activity type="w" link="1099" start_time="08:38:21" end_time="16:33:50" >
			</activity>
			<leg mode="car">
			</leg>
			<activity type="h" link="1103" >
			</activity>
		</plan>

	</person>

<!-- ====================================================================== -->

	<person id="1040">
		<attributes>
			<attribute name="drivelogic" class="java.lang.String" >org.matsim.contrib.smartcity.agent.CLASSDriverLogicBasic</attribute>
		</attributes>
		<plan selected="yes">
			<activity type="h" link="724" max_dur="07:56:07" >
			</activity>
			<leg mode="car">
			</leg>
			<activity type="w" link="87" start_time="07:58:45" end_time="16:47:35" >
			</activity>
			<leg mode="car">
			</leg>
			<activity type="h" link="724" >
			</activity>
		</plan>

	</person>

<!-- ====================================================================== -->

	<person id="1041">
		<attributes>
			<attribute name="drivelogic" class="java.lang.String" >org.matsim.contrib.smartcity.agent.CLASSDriverLogicBasic</attribute>
		</attributes>
		<plan selected="yes">
			<activity type="h" link="827" max_dur="08:47:39" >
			</activity>
			<leg mode="car">
			</leg>
			<activity type="w" link="1021" start_time="08:49:58" end_time="16:49:15" >
			</activity>
			<leg mode="car">
			</leg>
			<activity type="h" link="827" >
			</activity>
		</plan>

	</person>

<!-- ====================================================================== -->

	<person id="1042">
		<attributes>
			<attribute name="drivelogic" class="java.lang.String" >org.matsim.contrib.smartcity.agent.CLASSDriverLogicBasic</attribute>
		</attributes>
		<plan selected="yes">
			<activity type="h" link="1062" max_dur="09:08:13" >
			</activity>
			<leg mode="car">
			</leg>
			<activity type="w" link="671" start_time="09:09:01" end_time="17:07:10" >
			</activity>
			<leg mode="car">
			</leg>
			<activity type="h" link="1062" >
			</activity>
		</plan>

	</person>

<!-- ====================================================================== -->

	<person id="1043">
		<attributes>
			<attribute name="drivelogic" class="java.lang.String" >org.matsim.contrib.smartcity.agent.CLASSDriverLogicBasic</attribute>
		</attributes>
		<plan selected="yes">
			<activity type="h" link="141" max_dur="10:53:29" >
			</activity>
			<leg mode="car">
			</leg>