<?xml version="1.0" encoding="UTF-8"?>
<!DOCTYPE facilities SYSTEM "http://www.matsim.org/files/dtd/facilities_v1.dtd">

<facilities>
	<facility id="10053840062" x="10.9163781" y="44.6502929">
		<activity type="charging_station">
		</activity>
	</facility>
	<facility id="10053840066" x="10.9162098" y="44.650272">
		<activity type="bicycle_parking">
		</activity>
	</facility>
	<facility id="10053840076" x="10.9159134" y="44.6509005">
		<activity type="restaurant">
		</activity>
	</facility>
	<facility id="10053977784" x="10.9198413" y="44.6594865">
		<activity type="bank">
		</activity>
	</facility>
	<facility id="10053977787" x="10.9211144" y="44.6585557">
		<activity type="charging_station">
		</activity>
	</facility>
	<facility id="10168481824" x="10.9203479" y="44.658775">
		<activity type="restaurant">
		</activity>
	</facility>
	<facility id="10232512330" x="10.916018" y="44.660677">
		<activity type="restaurant">
		</activity>
	</facility>
	<facility id="10289044201" x="10.9339471" y="44.6555263">
		<activity type="cafe">
		</activity>
	</facility>
	<facility id="10289047254" x="10.9310689" y="44.658225">
		<activity type="bicycle_parking">
		</activity>
	</facility>
	<facility id="1098019481" x="10.9210203" y="44.6590319">
		<activity type="car interaction">			<capacity value="9.0" />

		</activity>
		<attributes>
			<attribute name="links" class="java.lang.String">1098019480;1098019481</attribute>
		</attributes>
	</facility>
	<facility id="1098019483" x="10.9203444" y="44.6592078">
		<activity type="car interaction">			<capacity value="24.0" />

		</activity>
		<attributes>
			<attribute name="links" class="java.lang.String">1098019482;1098019483</attribute>
		</attributes>
	</facility>
	<facility id="113046620" x="10.9184744" y="44.6487967">
		<activity type="school">
		</activity>
	</facility>
	<facility id="1130621572" x="10.9148891" y="44.6629293">
		<activity type="car interaction">			<capacity value="100.0" />

		</activity>
		<attributes>
			<attribute name="links" class="java.lang.String">1130621572;1132491510;1132491511</attribute>
		</attributes>
	</facility>
	<facility id="120411924" x="10.9199683" y="44.6516567">
		<activity type="community_centre">
		</activity>
	</facility>
	<facility id="120546296" x="10.9203154" y="44.6525335">
		<activity type="school">
		</activity>
	</facility>
	<facility id="120726194" x="10.9334373" y="44.6520469">
		<activity type="car interaction">			<capacity value="12.0" />

		</activity>
		<attributes>
			<attribute name="links" class="java.lang.String">120726194;191785972</attribute>
		</attributes>
	</facility>
	<facility id="131238197" x="10.9638817" y="44.6620342">
		<activity type="car interaction">			<capacity value="8.0" />

		</activity>
		<attributes>
			<attribute name="links" class="java.lang.String">131238197</attribute>
		</attributes>
	</facility>
	<facility id="131239064" x="10.9616172" y="44.6586295">
		<activity type="bank">
		</activity>
	</facility>
	<facility id="131947134" x="10.9622512" y="44.6578914">
		<activity type="bank">
		</activity>
	</facility>
	<facility id="135254037" x="10.9210299" y="44.6587651">
		<activity type="car interaction">			<capacity value="107.0" />

		</activity>
		<attributes>
			<attribute name="links" class="java.lang.String">135254037;193166693;193166698;569653531;569653537;656506228</attribute>
		</attributes>
	</facility>
	<facility id="1359255737" x="10.9312638" y="44.6540972">
		<activity type="telephone">
		</activity>
	</facility>
	<facility id="1444329945" x="10.9633641" y="44.6598667">
		<activity type="bar">
		</activity>
	</facility>
	<facility id="1444847160" x="10.9177363" y="44.6500491">
		<activity type="fast_food">
		</activity>
	</facility>
	<facility id="1444847162" x="10.9442332" y="44.6539964">
		<activity type="fast_food">
		</activity>
	</facility>
	<facility id="1450906237" x="10.9614635" y="44.6576509">
		<activity type="bar">
		</activity>
	</facility>
	<facility id="167115792" x="10.964364" y="44.6618937">
		<activity type="place_of_worship">
		</activity>
	</facility>
	<facility id="167116305" x="10.9427441" y="44.6526292">
		<activity type="pharmacy">
		</activity>
	</facility>
	<facility id="167117959" x="10.9403076" y="44.6497004">
		<activity type="car interaction">			<capacity value="26.0" />

		</activity>
		<attributes>
			<attribute name="links" class="java.lang.String">167117959;571831991</attribute>
		</attributes>
	</facility>
	<facility id="167119162" x="10.9204639" y="44.6532277">
		<activity type="nightclub">
		</activity>
	</facility>
	<facility id="167120999" x="10.9358861" y="44.6538936">
		<activity type="nightclub">
		</activity>
	</facility>
	<facility id="167121828" x="10.9353627" y="44.6550744">
		<activity type="bank">
		</activity>
	</facility>
	<facility id="167136466" x="10.9441717" y="44.6526878">
		<activity type="place_of_worship">
		</activity>
	</facility>
	<facility id="167165107" x="10.9278103" y="44.6634475">
		<activity type="childcare">
		</activity>
	</facility>
	<facility id="167165153" x="10.9269862" y="44.6522667">
		<activity type="place_of_worship">
		</activity>
	</facility>
	<facility id="167165166" x="10.9194967" y="44.6619614">
		<activity type="place_of_worship">
		</activity>
	</facility>
	<facility id="167165212" x="10.9189227" y="44.6574651">
		<activity type="restaurant">
		</activity>
	</facility>
	<facility id="167165317" x="10.9182738" y="44.6549657">
		<activity type="place_of_worship">
		</activity>
	</facility>
	<facility id="167165713" x="10.9296011" y="44.6673839">
		<activity type="police">
		</activity>
	</facility>
	<facility id="167165889" x="10.9171463" y="44.6553088">
		<activity type="nightclub">
		</activity>
	</facility>
	<facility id="167165937" x="10.9268375" y="44.6624018">
		<activity type="place_of_worship">
		</activity>
	</facility>
	<facility id="167166197" x="10.9175612" y="44.6554685">
		<activity type="community_centre">
		</activity>
	</facility>
	<facility id="167166439" x="10.9202197" y="44.6568815">
		<activity type="cafe">
		</activity>
	</facility>
	<facility id="167166669" x="10.9205777" y="44.6599671">
		<activity type="restaurant">
		</activity>
	</facility>
	<facility id="167278394" x="10.9268098" y="44.656601">
		<activity type="police">
		</activity>
	</facility>
	<facility id="167278783" x="10.9379" y="44.6560176">
		<activity type="place_of_worship">
		</activity>
	</facility>
	<facility id="167278847" x="10.9323041" y="44.6534022">
		<activity type="car interaction">			<capacity value="116.0" />

		</activity>
		<attributes>
			<attribute name="links" class="java.lang.String">167278499;167278847;650097688</attribute>
		</attributes>
	</facility>
	<facility id="167278988" x="10.9399932" y="44.6597645">
		<activity type="restaurant">
		</activity>
	</facility>
	<facility id="167305592" x="10.920536" y="44.6589931">
		<activity type="cinema">
		</activity>
	</facility>
	<facility id="167305594" x="10.9230902" y="44.6500703">
		<activity type="university">
		</activity>
	</facility>
	<facility id="167305597" x="10.9336403" y="44.6514983">
		<activity type="place_of_worship">
		</activity>
	</facility>
	<facility id="167305969" x="10.9382234" y="44.6679776">
		<activity type="fuel">
		</activity>
	</facility>
	<facility id="1755033773" x="10.9343372" y="44.655332">
		<activity type="bicycle_parking">
		</activity>
	</facility>
	<facility id="1785268255" x="10.9358049" y="44.654884">
		<activity type="restaurant">
		</activity>
	</facility>
	<facility id="1787134677" x="10.9199172" y="44.6594813">
		<activity type="atm">
		</activity>
	</facility>
	<facility id="191605155" x="10.9192219" y="44.6539732">
		<activity type="car interaction">			<capacity value="55.0" />

		</activity>
		<attributes>
			<attribute name="links" class="java.lang.String">28130600;191605155;487463550;487463552</attribute>
		</attributes>
	</facility>
	<facility id="191605157" x="10.9194833" y="44.6500162">
		<activity type="car interaction">			<capacity value="26.0" />

		</activity>
		<attributes>
			<attribute name="links" class="java.lang.String">191605157</attribute>
		</attributes>
	</facility>
	<facility id="191605160" x="10.9175388" y="44.6539885">
		<activity type="car interaction">			<capacity value="12.0" />

		</activity>
		<attributes>
			<attribute name="links" class="java.lang.String">191605146;191605160</attribute>
		</attributes>
	</facility>
	<facility id="191785974" x="10.933259" y="44.6517737">
		<activity type="car interaction">			<capacity value="12.0" />

		</activity>
		<attributes>
			<attribute name="links" class="java.lang.String">191785973;191785974;321049999;321050003</attribute>
		</attributes>
	</facility>
	<facility id="191959735" x="10.9156037" y="44.6510552">
		<activity type="fuel">
		</activity>
	</facility>
	<facility id="191959745" x="10.9165892" y="44.6501128">
		<activity type="car interaction">			<capacity value="100.0" />

		</activity>
		<attributes>
			<attribute name="links" class="java.lang.String">27133978;167127567;167136529;191959718;191959720;191959726;191959728;191959729;191959743;191959745;1098006609;1098006610;1098006611;1098006612;1098006613</attribute>
		</attributes>
	</facility>
	<facility id="191959748" x="10.9166764" y="44.6492671">
		<activity type="car interaction">			<capacity value="37.0" />

		</activity>
		<attributes>
			<attribute name="links" class="java.lang.String">27133979;191959748</attribute>
		</attributes>
	</facility>
	<facility id="193022075" x="10.9214857" y="44.6670419">
		<activity type="car_wash">
		</activity>
	</facility>
	<facility id="193022091" x="10.9214426" y="44.6667709">
		<activity type="fuel">
		</activity>
	</facility>
	<facility id="193022092" x="10.920819" y="44.6696162">
		<activity type="prison">
		</activity>
	</facility>
	<facility id="193166704" x="10.9196616" y="44.6574311">
		<activity type="car interaction">			<capacity value="246.0" />

		</activity>
		<attributes>
			<attribute name="links" class="java.lang.String">27643363;27643364;193166680;193166683;193166689;193166696;193166699;193166701;193166704;209558653;436301815;436301818;436301820;567477648;569647994;569651232;569653531;656506228</attribute>
		</attributes>
	</facility>
	<facility id="193166705" x="10.9200458" y="44.6577716">
		<activity type="car interaction">			<capacity value="10.0" />

		</activity>
		<attributes>
			<attribute name="links" class="java.lang.String">193166705</attribute>
		</attributes>
	</facility>
	<facility id="193166706" x="10.9191004" y="44.6585941">
		<activity type="car interaction">			<capacity value="100.0" />

		</activity>
		<attributes>
			<attribute name="links" class="java.lang.String">32067183;193166690;193166697;193166706;408398358;569648453;569648718;569650583;569650585;656506228</attribute>
		</attributes>
	</facility>
	<facility id="193166707" x="10.9212078" y="44.6579966">
		<activity type="car interaction">			<capacity value="21.0" />

		</activity>
		<attributes>
			<attribute name="links" class="java.lang.String">193166707</attribute>
		</attributes>
	</facility>
	<facility id="193166708" x="10.9197825" y="44.6596844">
		<activity type="car interaction">			<capacity value="17.0" />

		</activity>
		<attributes>
			<attribute name="links" class="java.lang.String">32067231;193166708</attribute>
		</attributes>
	</facility>
	<facility id="193672368" x="10.9481917" y="44.6556869">
		<activity type="car interaction">			<capacity value="20.0" />

		</activity>
		<attributes>
			<attribute name="links" class="java.lang.String">167132024;193672363;193672368</attribute>
		</attributes>
	</facility>
	<facility id="193672369" x="10.948902" y="44.6558899">
		<activity type="car interaction">			<capacity value="45.0" />

		</activity>
		<attributes>
			<attribute name="links" class="java.lang.String">33787873;193672345;193672346;193672357;193672369;1031019666</attribute>
		</attributes>
	</facility>
	<facility id="193672373" x="10.9473415" y="44.6573183">
		<activity type="car interaction">			<capacity value="19.0" />

		</activity>
		<attributes>
			<attribute name="links" class="java.lang.String">193672350;193672353;193672354;193672373</attribute>
		</attributes>
	</facility>
	<facility id="193672374" x="10.9552149" y="44.6572064">
		<activity type="car interaction">			<capacity value="5.0" />

		</activity>
		<attributes>
			<attribute name="links" class="java.lang.String">193672374</attribute>
		</attributes>
	</facility>
	<facility id="193672377" x="10.9485832" y="44.6578526">
		<activity type="car interaction">			<capacity value="36.0" />

		</activity>
		<attributes>
			<attribute name="links" class="java.lang.String">32056861;193672377</attribute>
		</attributes>
	</facility>
	<facility id="193672379" x="10.948351" y="44.6573203">
		<activity type="car interaction">			<capacity value="33.0" />

		</activity>
		<attributes>
			<attribute name="links" class="java.lang.String">32056860;193672379</attribute>
		</attributes>
	</facility>
	<facility id="193672380" x="10.9475955" y="44.658006">
		<activity type="car interaction">			<capacity value="13.0" />

		</activity>
		<attributes>
			<attribute name="links" class="java.lang.String">193672380</attribute>
		</attributes>
	</facility>
	<facility id="193672381" x="10.9404932" y="44.6557125">
		<activity type="car interaction">			<capacity value="34.0" />

		</activity>
		<attributes>
			<attribute name="links" class="java.lang.String">32049284;32049422;193672344;193672347;193672362;193672381;490523256</attribute>
		</attributes>
	</facility>
	<facility id="193672382" x="10.9434154" y="44.6544569">
		<activity type="car interaction">			<capacity value="10.0" />

		</activity>
		<attributes>
			<attribute name="links" class="java.lang.String">33787639;193672382</attribute>
		</attributes>
	</facility>
	<facility id="193672383" x="10.9562169" y="44.6568202">
		<activity type="car interaction">			<capacity value="22.0" />

		</activity>
		<attributes>
			<attribute name="links" class="java.lang.String">193672342;193672355;193672383</attribute>
		</attributes>
	</facility>
	<facility id="193672384" x="10.94775" y="44.6593847">
		<activity type="car interaction">			<capacity value="17.0" />

		</activity>
		<attributes>
			<attribute name="links" class="java.lang.String">193672378;193672384</attribute>
		</attributes>
	</facility>
	<facility id="193672385" x="10.9463353" y="44.6568204">
		<activity type="car interaction">			<capacity value="41.0" />

		</activity>
		<attributes>
			<attribute name="links" class="java.lang.String">33787714;130070478;193672385</attribute>
		</attributes>
	</facility>
	<facility id="193672387" x="10.9479695" y="44.6563931">
		<activity type="car interaction">			<capacity value="31.0" />

		</activity>
		<attributes>
			<attribute name="links" class="java.lang.String">193672360;193672387</attribute>
		</attributes>
	</facility>
	<facility id="193672388" x="10.9558224" y="44.657049">
		<activity type="car interaction">			<capacity value="20.0" />

		</activity>
		<attributes>
			<attribute name="links" class="java.lang.String">193672356;193672358;193672371;193672388</attribute>
		</attributes>
	</facility>
	<facility id="193672389" x="10.9499021" y="44.6564672">
		<activity type="car interaction">			<capacity value="43.0" />

		</activity>
		<attributes>
			<attribute name="links" class="java.lang.String">32056851;33787916;33787917;193672389;454086617</attribute>
		</attributes>
	</facility>
	<facility id="194525204" x="10.9593181" y="44.6515932">
		<activity type="fuel">
		</activity>
	</facility>
	<facility id="194525250" x="10.9572049" y="44.6528975">
		<activity type="car interaction">			<capacity value="119.0" />

		</activity>
		<attributes>
			<attribute name="links" class="java.lang.String">194525206;194525207;194525208;194525226;194525231;194525233;194525250</attribute>
		</attributes>
	</facility>
	<facility id="194525252" x="10.961993" y="44.649564">
		<activity type="car interaction">			<capacity value="59.0" />

		</activity>
		<attributes>
			<attribute name="links" class="java.lang.String">167120475;194525227;194525252;489754659</attribute>
		</attributes>
	</facility>
	<facility id="194525261" x="10.9491373" y="44.6516697">
		<activity type="car interaction">			<capacity value="31.0" />

		</activity>
		<attributes>
			<attribute name="links" class="java.lang.String">194525225;194525261</attribute>
		</attributes>
	</facility>
	<facility id="194525269" x="10.9504728" y="44.651457">
		<activity type="car interaction">			<capacity value="15.0" />

		</activity>
		<attributes>
			<attribute name="links" class="java.lang.String">194525269</attribute>
		</attributes>
	</facility>
	<facility id="194525272" x="10.9563269" y="44.6537627">
		<activity type="car interaction">			<capacity value="41.0" />

		</activity>
		<attributes>
			<attribute name="links" class="java.lang.String">194525243;194525272</attribute>
		</attributes>
	</facility>
	<facility id="2013433801" x="10.9333202" y="44.6515854">
		<activity type="bicycle_rental">
		</activity>
	</facility>
	<facility id="2013433803" x="10.9206547" y="44.6499263">
		<activity type="bicycle_rental">
		</activity>
	</facility>
	<facility id="2013433804" x="10.9176892" y="44.6540409">
		<activity type="bicycle_rental">
		</activity>
	</facility>
	<facility id="2013433805" x="10.9302069" y="44.6536446">
		<activity type="bicycle_rental">
		</activity>
	</facility>
	<facility id="2013433806" x="10.9233802" y="44.649988">
		<activity type="bicycle_rental">
		</activity>
	</facility>
	<facility id="2013474806" x="10.9170612" y="44.6496491">
		<activity type="bicycle_rental">
		</activity>
	</facility>
	<facility id="2013474816" x="10.9293872" y="44.655704">
		<activity type="bicycle_rental">
		</activity>
	</facility>
	<facility id="2013474832" x="10.9190206" y="44.6505723">
		<activity type="bicycle_rental">
		</activity>
	</facility>
	<facility id="2013581294" x="10.9253899" y="44.6516379">
		<activity type="bicycle_rental">
		</activity>
	</facility>
	<facility id="2019953921" x="10.9285198" y="44.6511381">
		<activity type="bicycle_rental">
		</activity>
	</facility>
	<facility id="2019953924" x="10.915863" y="44.6562152">
		<activity type="bicycle_rental">
		</activity>
	</facility>
	<facility id="2019953925" x="10.9169827" y="44.6566441">
		<activity type="bicycle_rental">
		</activity>
	</facility>
	<facility id="2021886481" x="10.9246792" y="44.6506018">
		<activity type="parking_entrance">
		</activity>
	</facility>
	<facility id="2021886482" x="10.9203853" y="44.6514693">
		<activity type="parking_entrance">
		</activity>
	</facility>
	<facility id="2025194890" x="10.9170277" y="44.6499541">
		<activity type="parking_entrance">
		</activity>
	</facility>
	<facility id="2025194902" x="10.9162269" y="44.6503256">
		<activity type="parking_entrance">
		</activity>
	</facility>
	<facility id="2090827902" x="10.9491026" y="44.6559896">
		<activity type="cafe">
		</activity>
	</facility>
	<facility id="219670990" x="10.938286" y="44.6692304">
		<activity type="car interaction">			<capacity value="20.0" />

		</activity>
		<attributes>
			<attribute name="links" class="java.lang.String">219670990</attribute>
		</attributes>
	</facility>
	<facility id="2228098" x="10.9375694" y="44.650766">
		<activity type="bank">
		</activity>
	</facility>
	<facility id="2228149" x="10.9339903" y="44.6527881">
		<activity type="place_of_worship">
		</activity>
	</facility>
	<facility id="227724044" x="10.9570484" y="44.6541905">
		<activity type="fuel">
		</activity>
	</facility>
	<facility id="228257833" x="10.9465001" y="44.6546107">
		<activity type="fuel">
		</activity>
	</facility>
	<facility id="2288109290" x="10.9370108" y="44.6658295">
		<activity type="cafe">
		</activity>
	</facility>
	<facility id="229143190" x="10.9582041" y="44.6581127">
		<activity type="fuel">
		</activity>
	</facility>
	<facility id="2401540706" x="10.9217767" y="44.6521899">
		<activity type="charging_station">
		</activity>
	</facility>
	<facility id="2401540732" x="10.9184088" y="44.6583503">
		<activity type="charging_station">
		</activity>
	</facility>
	<facility id="2401540733" x="10.9298882" y="44.6563763">
		<activity type="charging_station">
		</activity>
	</facility>
	<facility id="268696881" x="10.9369728" y="44.6523621">
		<activity type="car interaction">			<capacity value="41.0" />

		</activity>
		<attributes>
			<attribute name="links" class="java.lang.String">268696865;268696873;268696878;268696881</attribute>
		</attributes>
	</facility>
	<facility id="28093311" x="10.9154925" y="44.6556257">
		<activity type="car interaction">			<capacity value="10.0" />

		</activity>
		<attributes>
			<attribute name="links" class="java.lang.String">28093309;28093311</attribute>
		</attributes>
	</facility>
	<facility id="28093312" x="10.9148642" y="44.6549244">
		<activity type="car interaction">			<capacity value="53.0" />

		</activity>
		<attributes>
			<attribute name="links" class="java.lang.String">28093304;28093308;28093310;28093312;167165368</attribute>
		</attributes>
	</facility>
	<facility id="28130099" x="10.9185958" y="44.6520655">
		<activity type="car interaction">			<capacity value="79.0" />

		</activity>
		<attributes>
			<attribute name="links" class="java.lang.String">28130099;28130100;191569983;447776663</attribute>
		</attributes>
	</facility>
	<facility id="28130734" x="10.9213397" y="44.6534977">
		<activity type="car interaction">			<capacity value="363.0" />

		</activity>
		<attributes>
			<attribute name="links" class="java.lang.String">28130716;28130717;28130718;28130721;28130722;28130723;28130725;28130726;28130727;28130728;28130729;28130730;28130731;28130732;28130733;28130734;191605136;487463552</attribute>
		</attributes>
	</facility>
	<facility id="2919314608" x="10.9464303" y="44.6522375">
		<activity type="post_office">
		</activity>
	</facility>
	<facility id="306212337" x="10.9347824" y="44.6530126">
		<activity type="community_centre">
		</activity>
	</facility>
	<facility id="306563388" x="10.9348712" y="44.655023">
		<activity type="car interaction">			<capacity value="14.0" />

		</activity>
		<attributes>
			<attribute name="links" class="java.lang.String">306563388;622683998</attribute>
		</attributes>
	</facility>
	<facility id="3199631489" x="10.9206548" y="44.6585532">
		<activity type="restaurant">
		</activity>
	</facility>
	<facility id="3199631491" x="10.9206432" y="44.6584505">
		<activity type="restaurant">
		</activity>
	</facility>
	<facility id="32049496" x="10.9223258" y="44.6563269">
		<activity type="car interaction">			<capacity value="100.0" />

		</activity>
		<attributes>
			<attribute name="links" class="java.lang.String">32049496;193118817</attribute>
		</attributes>
	</facility>
	<facility id="32057324" x="10.9312993" y="44.6536315">
		<activity type="car interaction">			<capacity value="97.0" />

		</activity>
		<attributes>
			<attribute name="links" class="java.lang.String">23683655;28140737;28140740;32057324;32874719;96109018;191605130;200445699;455159011;650097681;692702904</attribute>
		</attributes>
	</facility>
	<facility id="321892061" x="10.9300321" y="44.6540862">
		<activity type="taxi">
		</activity>
	</facility>
	<facility id="321892062" x="10.9301971" y="44.6537484">
		<activity type="bicycle_parking">
		</activity>
	</facility>
	<facility id="323333452" x="10.9396239" y="44.6511926">
		<activity type="car interaction">			<capacity value="95.0" />

		</activity>
		<attributes>
			<attribute name="links" class="java.lang.String">28687250;28687251;28687286;191742017;323333452;607740263;607740861;690848177</attribute>
		</attributes>
	</facility>
	<facility id="323333456" x="10.9402166" y="44.6506422">
		<activity type="car interaction">			<capacity value="68.0" />

		</activity>
		<attributes>
			<attribute name="links" class="java.lang.String">323333453;323333456</attribute>
		</attributes>
	</facility>
	<facility id="32874433" x="10.9203543" y="44.6502288">
		<activity type="car interaction">			<capacity value="128.0" />

		</activity>
		<attributes>
			<attribute name="links" class="java.lang.String">28140042;28140043;28140044;28140045;28140046;32874433;191605137;191605141;191605148;487461600;620961346;620961347;620961348</attribute>
		</attributes>
	</facility>
	<facility id="32875046" x="10.9286414" y="44.6559109">
		<activity type="car interaction">			<capacity value="66.0" />

		</activity>
		<attributes>
			<attribute name="links" class="java.lang.String">32875046;32875134;190655401;190655417;365182715;397924980;690163981;690163983;690163986;691042241;691042488</attribute>
		</attributes>
	</facility>
	<facility id="3379581770" x="10.916416" y="44.6519604">
		<activity type="bank">
		</activity>
	</facility>
	<facility id="3379581771" x="10.9290101" y="44.6527575">
		<activity type="pharmacy">
		</activity>
	</facility>
	<facility id="3379581774" x="10.9241196" y="44.6499412">
		<activity type="restaurant">
		</activity>
	</facility>
	<facility id="3379581776" x="10.9339999" y="44.6524674">
		<activity type="restaurant">
		</activity>
	</facility>
	<facility id="3410716173" x="10.9323724" y="44.6574404">
		<activity type="social_facility">
		</activity>
	</facility>
	<facility id="3410716174" x="10.9319821" y="44.6576235">
		<activity type="library">
		</activity>
	</facility>
	<facility id="353386827" x="10.9209462" y="44.6517864">
		<activity type="car interaction">			<capacity value="117.0" />

		</activity>
		<attributes>
			<attribute name="links" class="java.lang.String">191605138;191605145;353386827;520865691;520976465;620157710;620157711;620157712;620157713;620157714;620157716;620167951;620167952;627174783</attribute>
		</attributes>
	</facility>
	<facility id="35978070" x="10.9302788" y="44.6575675">
		<activity type="car interaction">			<capacity value="58.0" />

		</activity>
		<attributes>
			<attribute name="links" class="java.lang.String">35978058;35978060;35978064;35978065;35978068;35978069;35978070;193166684;209730256;473994205;976186501;976186502</attribute>
		</attributes>
	</facility>
	<facility id="35979711" x="10.9280483" y="44.6605206">
		<activity type="car interaction">			<capacity value="29.0" />

		</activity>
		<attributes>
			<attribute name="links" class="java.lang.String">35979709;35979710;35979711</attribute>
		</attributes>
	</facility>
	<facility id="36239004" x="10.9332807" y="44.6628058">
		<activity type="car interaction">			<capacity value="82.0" />

		</activity>
		<attributes>
			<attribute name="links" class="java.lang.String">32056762;36239001;36239002;36239003;36239004;209730243;664864412</attribute>
		</attributes>
	</facility>
	<facility id="375832987" x="10.9262202" y="44.6557808">
		<activity type="car interaction">			<capacity value="13.0" />

		</activity>
		<attributes>
			<attribute name="links" class="java.lang.String">375832987</attribute>
		</attributes>
	</facility>
	<facility id="375832988" x="10.9280354" y="44.6564794">
		<activity type="car interaction">			<capacity value="145.0" />

		</activity>
		<attributes>
			<attribute name="links" class="java.lang.String">193166669;375832988;375834630;479907206;479907207;690163995</attribute>
		</attributes>
	</facility>
	<facility id="375832989" x="10.9244493" y="44.6557362">
		<activity type="car interaction">			<capacity value="27.0" />

		</activity>
		<attributes>
			<attribute name="links" class="java.lang.String">375832989</attribute>
		</attributes>
	</facility>
	<facility id="3791819431" x="10.9241234" y="44.649848">
		<activity type="ice_cream">
		</activity>
	</facility>
	<facility id="3857713774" x="10.9337916" y="44.6552746">
		<activity type="post_office">
		</activity>
	</facility>
	<facility id="38684202" x="10.9618228" y="44.6534565">
		<activity type="car interaction">			<capacity value="105.0" />

		</activity>
		<attributes>
			<attribute name="links" class="java.lang.String">38684202;209558671;489759832</attribute>
		</attributes>
	</facility>
	<facility id="3877608358" x="10.9236125" y="44.6502478">
		<activity type="library">
		</activity>
	</facility>
	<facility id="388872802" x="10.9176899" y="44.6569406">
		<activity type="car interaction">			<capacity value="29.0" />

		</activity>
		<attributes>
			<attribute name="links" class="java.lang.String">28093705;28093708;388872802;388872807;520994509</attribute>
		</attributes>
	</facility>
	<facility id="388872803" x="10.9166874" y="44.6564525">
		<activity type="car interaction">			<capacity value="93.0" />

		</activity>
		<attributes>
			<attribute name="links" class="java.lang.String">28093708;388872803;388872805;388872808;388872810;388872812;388872814</attribute>
		</attributes>
	</facility>
	<facility id="388872804" x="10.9180439" y="44.6557946">
		<activity type="car interaction">			<capacity value="77.0" />

		</activity>
		<attributes>
			<attribute name="links" class="java.lang.String">167165874;167166184;167166197;167166428;388872804;701910540;701910541;701910542;701910546;701910549;701910550;701910551;701910552</attribute>
		</attributes>
	</facility>
	<facility id="3949507251" x="10.9305987" y="44.6543214">
		<activity type="cafe">
		</activity>
	</facility>
	<facility id="3949507252" x="10.9307479" y="44.6543041">
		<activity type="fast_food">
		</activity>
	</facility>
	<facility id="395037225" x="10.9221642" y="44.6506512">
		<activity type="cafe">
		</activity>
	</facility>
	<facility id="3980752136" x="10.9386846" y="44.650209">
		<activity type="restaurant">
		</activity>
	</facility>
	<facility id="4072635188" x="10.9307122" y="44.6539219">
		<activity type="bicycle_rental">
		</activity>
	</facility>
	<facility id="4078987198" x="10.9223203" y="44.6506027">
		<activity type="parking_entrance">
		</activity>
	</facility>
	<facility id="4078987199" x="10.923479" y="44.6507823">
		<activity type="parking_entrance">
		</activity>
	</facility>
	<facility id="435202296" x="10.9322373" y="44.6503307">
		<activity type="toilets">
		</activity>
	</facility>